# generated using pymatgen
data_AgNO3
_symmetry_space_group_name_H-M   'P 1'
_cell_length_a   5.12482063
_cell_length_b   4.08088399
_cell_length_c   7.07247413
_cell_angle_alpha   75.44605632
_cell_angle_beta   89.99896604
_cell_angle_gamma   89.99893402
_symmetry_Int_Tables_number   1
_chemical_formula_structural   AgNO3
_chemical_formula_sum   'Ag2 N2 O6'
_cell_volume   143.16601176
_cell_formula_units_Z   2
loop_
 _symmetry_equiv_pos_site_id
 _symmetry_equiv_pos_as_xyz
  1  'x, y, z'
loop_
 _atom_site_type_symbol
 _atom_site_label
 _atom_site_symmetry_multiplicity
 _atom_site_fract_x
 _atom_site_fract_y
 _atom_site_fract_z
 _atom_site_occupancy
  Ag  Ag0  1  0.24999978  0.17189904  0.27120322  1.0
  Ag  Ag1  1  0.75000020  0.82810091  0.72879679  1.0
  N  N2  1  0.24997851  0.20597772  0.75781132  1.0
  N  N3  1  0.75002156  0.79402408  0.24218947  1.0
  O  O4  1  0.96554633  0.70628980  0.18230591  1.0
  O  O5  1  0.53443350  0.70628042  0.18230103  1.0
  O  O6  1  0.74999988  0.98903573  0.35886869  1.0
  O  O7  1  0.25000062  0.01095589  0.64112623  1.0
  O  O8  1  0.03444523  0.29371335  0.81769597  1.0
  O  O9  1  0.46557439  0.29372306  0.81770137  1.0
