# generated using pymatgen
data_AgNO3
_symmetry_space_group_name_H-M   'P 1'
_cell_length_a   4.15421971
_cell_length_b   4.15422001
_cell_length_c   4.15421875
_cell_angle_alpha   76.79350843
_cell_angle_beta   76.79350998
_cell_angle_gamma   76.79348598
_symmetry_Int_Tables_number   1
_chemical_formula_structural   AgNO3
_chemical_formula_sum   'Ag1 N1 O3'
_cell_volume   66.76429598
_cell_formula_units_Z   1
loop_
 _symmetry_equiv_pos_site_id
 _symmetry_equiv_pos_as_xyz
  1  'x, y, z'
loop_
 _atom_site_type_symbol
 _atom_site_label
 _atom_site_symmetry_multiplicity
 _atom_site_fract_x
 _atom_site_fract_y
 _atom_site_fract_z
 _atom_site_occupancy
  Ag  Ag0  1  0.00746767  0.00746765  0.00746760  1.0
  N  N1  1  0.43334002  0.43333993  0.43334003  1.0
  O  O2  1  0.57324621  0.14669779  0.57324623  1.0
  O  O3  1  0.57324624  0.57324621  0.14669788  1.0
  O  O4  1  0.14669785  0.57324642  0.57324625  1.0
