# generated using pymatgen
data_AgNO3
_symmetry_space_group_name_H-M   'P 1'
_cell_length_a   8.47653986
_cell_length_b   5.17577792
_cell_length_c   5.17577479
_cell_angle_alpha   59.99872736
_cell_angle_beta   52.36703195
_cell_angle_gamma   52.36701619
_symmetry_Int_Tables_number   1
_chemical_formula_structural   AgNO3
_chemical_formula_sum   'Ag2 N2 O6'
_cell_volume   139.45473534
_cell_formula_units_Z   2
loop_
 _symmetry_equiv_pos_site_id
 _symmetry_equiv_pos_as_xyz
  1  'x, y, z'
loop_
 _atom_site_type_symbol
 _atom_site_label
 _atom_site_symmetry_multiplicity
 _atom_site_fract_x
 _atom_site_fract_y
 _atom_site_fract_z
 _atom_site_occupancy
  Ag  Ag0  1  0.25000001  0.49999997  0.50000003  1.0
  Ag  Ag1  1  0.75000000  0.49999994  0.50000002  1.0
  N  N2  1  0.00000001  0.99999858  0.00000131  1.0
  N  N3  1  0.49999999  0.00000144  0.99999868  1.0
  O  O4  1  0.00000142  0.24606686  0.99999830  1.0
  O  O5  1  0.99999871  0.00000154  0.75393279  1.0
  O  O6  1  0.50000123  0.99999852  0.24606725  1.0
  O  O7  1  0.49999866  0.75393311  0.00000165  1.0
  O  O8  1  0.50000010  0.24607523  0.75392456  1.0
  O  O9  1  0.99999988  0.75392481  0.24607542  1.0
