# generated using pymatgen
data_Al2Ge2O7
_symmetry_space_group_name_H-M   'P 1'
_cell_length_a   6.67134508
_cell_length_b   6.67135461
_cell_length_c   6.67134935
_cell_angle_alpha   59.99993005
_cell_angle_beta   59.99988708
_cell_angle_gamma   59.99990975
_symmetry_Int_Tables_number   1
_chemical_formula_structural   Al2Ge2O7
_chemical_formula_sum   'Al4 Ge4 O14'
_cell_volume   209.95451593
_cell_formula_units_Z   2
loop_
 _symmetry_equiv_pos_site_id
 _symmetry_equiv_pos_as_xyz
  1  'x, y, z'
loop_
 _atom_site_type_symbol
 _atom_site_label
 _atom_site_symmetry_multiplicity
 _atom_site_fract_x
 _atom_site_fract_y
 _atom_site_fract_z
 _atom_site_occupancy
  Al  Al0  1  0.62500005  0.62500000  0.62499995  1.0
  Al  Al1  1  0.12500000  0.62500004  0.62499987  1.0
  Al  Al2  1  0.62500005  0.12500001  0.62499991  1.0
  Al  Al3  1  0.62499994  0.62499998  0.12500000  1.0
  Ge  Ge4  1  0.12500002  0.62500001  0.12500003  1.0
  Ge  Ge5  1  0.12499999  0.12500002  0.62499998  1.0
  Ge  Ge6  1  0.62500001  0.12500002  0.12500002  1.0
  Ge  Ge7  1  0.12499998  0.12499996  0.12500004  1.0
  O  O8  1  0.75000002  0.75000005  0.75000007  1.0
  O  O9  1  0.21496014  0.78503939  0.78504062  1.0
  O  O10  1  0.21495998  0.78503976  0.21495980  1.0
  O  O11  1  0.78504125  0.78503868  0.21496008  1.0
  O  O12  1  0.78504069  0.21495993  0.78503931  1.0
  O  O13  1  0.21496000  0.21495958  0.78504047  1.0
  O  O14  1  0.46495891  0.03504031  0.03504001  1.0
  O  O15  1  0.78504106  0.21495973  0.21496000  1.0
  O  O16  1  0.03504009  0.46496020  0.03504025  1.0
  O  O17  1  0.03503997  0.03504042  0.46495957  1.0
  O  O18  1  0.46495874  0.46496130  0.03503993  1.0
  O  O19  1  0.46495933  0.03504006  0.46496069  1.0
  O  O20  1  0.03503980  0.46496064  0.46495942  1.0
  O  O21  1  0.49999998  0.49999992  0.49999998  1.0
