# generated using pymatgen
data_AlBiSe3
_symmetry_space_group_name_H-M   'P 1'
_cell_length_a   7.24343134
_cell_length_b   7.24343222
_cell_length_c   7.24343273
_cell_angle_alpha   58.27550486
_cell_angle_beta   58.27549269
_cell_angle_gamma   58.27548284
_symmetry_Int_Tables_number   1
_chemical_formula_structural   AlBiSe3
_chemical_formula_sum   'Al2 Bi2 Se6'
_cell_volume   258.11667805
_cell_formula_units_Z   2
loop_
 _symmetry_equiv_pos_site_id
 _symmetry_equiv_pos_as_xyz
  1  'x, y, z'
loop_
 _atom_site_type_symbol
 _atom_site_label
 _atom_site_symmetry_multiplicity
 _atom_site_fract_x
 _atom_site_fract_y
 _atom_site_fract_z
 _atom_site_occupancy
  Al  Al0  1  0.72006381  0.72006379  0.72006369  1.0
  Al  Al1  1  0.22006367  0.22006383  0.22006370  1.0
  Bi  Bi2  1  0.92779975  0.92779978  0.92779981  1.0
  Bi  Bi3  1  0.42779994  0.42779995  0.42779992  1.0
  Se  Se4  1  0.87861095  0.49601185  0.07401154  1.0
  Se  Se5  1  0.57401159  0.99601187  0.37861085  1.0
  Se  Se6  1  0.49601207  0.07401155  0.87861093  1.0
  Se  Se7  1  0.37861073  0.57401169  0.99601195  1.0
  Se  Se8  1  0.99601191  0.37861084  0.57401164  1.0
  Se  Se9  1  0.07401157  0.87861084  0.49601197  1.0
