# generated using pymatgen
data_AlBiS3
_symmetry_space_group_name_H-M   'P 1'
_cell_length_a   6.82496227
_cell_length_b   6.82496247
_cell_length_c   6.82496244
_cell_angle_alpha   58.72448564
_cell_angle_beta   58.72449208
_cell_angle_gamma   58.72449141
_symmetry_Int_Tables_number   1
_chemical_formula_structural   AlBiS3
_chemical_formula_sum   'Al2 Bi2 S6'
_cell_volume   218.24374538
_cell_formula_units_Z   2
loop_
 _symmetry_equiv_pos_site_id
 _symmetry_equiv_pos_as_xyz
  1  'x, y, z'
loop_
 _atom_site_type_symbol
 _atom_site_label
 _atom_site_symmetry_multiplicity
 _atom_site_fract_x
 _atom_site_fract_y
 _atom_site_fract_z
 _atom_site_occupancy
  Al  Al0  1  0.71933028  0.71933034  0.71933034  1.0
  Al  Al1  1  0.21933028  0.21933035  0.21933031  1.0
  Bi  Bi2  1  0.00832813  0.00832813  0.00832811  1.0
  Bi  Bi3  1  0.50832812  0.50832806  0.50832813  1.0
  S  S4  1  0.87282321  0.44417116  0.05184517  1.0
  S  S5  1  0.55184520  0.94417115  0.37282324  1.0
  S  S6  1  0.44417118  0.05184521  0.87282317  1.0
  S  S7  1  0.37282322  0.55184516  0.94417117  1.0
  S  S8  1  0.94417118  0.37282321  0.55184520  1.0
  S  S9  1  0.05184520  0.87282323  0.44417116  1.0
