# generated using pymatgen
data_AlBrO4
_symmetry_space_group_name_H-M   'P 1'
_cell_length_a   6.41930290
_cell_length_b   7.11832322
_cell_length_c   5.94838954
_cell_angle_alpha   89.99566678
_cell_angle_beta   89.99980380
_cell_angle_gamma   89.97672803
_symmetry_Int_Tables_number   1
_chemical_formula_structural   AlBrO4
_chemical_formula_sum   'Al4 Br4 O16'
_cell_volume   271.80969105
_cell_formula_units_Z   4
loop_
 _symmetry_equiv_pos_site_id
 _symmetry_equiv_pos_as_xyz
  1  'x, y, z'
loop_
 _atom_site_type_symbol
 _atom_site_label
 _atom_site_symmetry_multiplicity
 _atom_site_fract_x
 _atom_site_fract_y
 _atom_site_fract_z
 _atom_site_occupancy
  Al  Al0  1  0.24998421  0.25115164  0.75053347  1.0
  Al  Al1  1  0.75001530  0.74885093  0.24946790  1.0
  Al  Al2  1  0.75001601  0.75115891  0.74946493  1.0
  Al  Al3  1  0.24998323  0.24883923  0.25053327  1.0
  Br  Br4  1  0.25015847  0.81332272  0.49961281  1.0
  Br  Br5  1  0.74980698  0.18668475  0.50037672  1.0
  Br  Br6  1  0.75008152  0.31327162  0.00033718  1.0
  Br  Br7  1  0.24995033  0.68671961  0.99965050  1.0
  O  O8  1  0.43205179  0.24961241  0.50037169  1.0
  O  O9  1  0.93150113  0.75007813  0.49963168  1.0
  O  O10  1  0.56834587  0.74983229  0.99964219  1.0
  O  O11  1  0.06810825  0.25030695  0.00035980  1.0
  O  O12  1  0.56798576  0.75036801  0.49962898  1.0
  O  O13  1  0.06853647  0.24994274  0.50036903  1.0
  O  O14  1  0.43161984  0.25015094  0.00035903  1.0
  O  O15  1  0.93185738  0.74971073  0.99964165  1.0
  O  O16  1  0.25004147  0.54348602  0.22816485  1.0
  O  O17  1  0.74996422  0.45651586  0.77183786  1.0
  O  O18  1  0.74998748  0.04347897  0.27184598  1.0
  O  O19  1  0.25000548  0.95651933  0.72815263  1.0
  O  O20  1  0.25004236  0.54300665  0.77106063  1.0
  O  O21  1  0.74996353  0.45700044  0.22895068  1.0
  O  O22  1  0.74998586  0.04303812  0.72892279  1.0
  O  O23  1  0.25000706  0.95695299  0.27108375  1.0
