# generated using pymatgen
data_AlGaO3
_symmetry_space_group_name_H-M   'P 1'
_cell_length_a   3.78099795
_cell_length_b   3.78099402
_cell_length_c   3.78099627
_cell_angle_alpha   89.99999394
_cell_angle_beta   89.99999697
_cell_angle_gamma   89.99998272
_symmetry_Int_Tables_number   1
_chemical_formula_structural   AlGaO3
_chemical_formula_sum   'Al1 Ga1 O3'
_cell_volume   54.05286042
_cell_formula_units_Z   1
loop_
 _symmetry_equiv_pos_site_id
 _symmetry_equiv_pos_as_xyz
  1  'x, y, z'
loop_
 _atom_site_type_symbol
 _atom_site_label
 _atom_site_symmetry_multiplicity
 _atom_site_fract_x
 _atom_site_fract_y
 _atom_site_fract_z
 _atom_site_occupancy
  Al  Al0  1  0.99999998  0.00000003  0.99999996  1.0
  Ga  Ga1  1  0.49999999  0.49999993  0.49999995  1.0
  O  O2  1  0.49999996  0.49999996  0.00000003  1.0
  O  O3  1  0.50000002  0.00000004  0.50000005  1.0
  O  O4  1  0.00000006  0.50000005  0.50000001  1.0
