# generated using pymatgen
data_AlHO2
_symmetry_space_group_name_H-M   'P 1'
_cell_length_a   2.85973794
_cell_length_b   4.25797355
_cell_length_c   4.76780923
_cell_angle_alpha   89.99999988
_cell_angle_beta   90.00000000
_cell_angle_gamma   90.00000000
_symmetry_Int_Tables_number   1
_chemical_formula_structural   AlHO2
_chemical_formula_sum   'Al2 H2 O4'
_cell_volume   58.05612786
_cell_formula_units_Z   2
loop_
 _symmetry_equiv_pos_site_id
 _symmetry_equiv_pos_as_xyz
  1  'x, y, z'
loop_
 _atom_site_type_symbol
 _atom_site_label
 _atom_site_symmetry_multiplicity
 _atom_site_fract_x
 _atom_site_fract_y
 _atom_site_fract_z
 _atom_site_occupancy
  Al  Al0  1  0.49999999  0.22457956  0.50347577  1.0
  Al  Al1  1  0.00000001  0.77542044  0.00347578  1.0
  H  H2  1  0.50000001  0.30304444  0.01732768  1.0
  H  H3  1  0.00000000  0.69695560  0.51732768  1.0
  O  O4  1  0.00000000  0.49986524  0.64576482  1.0
  O  O5  1  0.49999999  0.50013475  0.14576483  1.0
  O  O6  1  0.99999998  0.99651156  0.34673172  1.0
  O  O7  1  0.50000002  0.00348843  0.84673173  1.0
