# generated using pymatgen
data_AlInCl4
_symmetry_space_group_name_H-M   'P 1'
_cell_length_a   11.00830776
_cell_length_b   6.51567004
_cell_length_c   11.66026716
_cell_angle_alpha   81.98180374
_cell_angle_beta   89.99999271
_cell_angle_gamma   89.99998263
_symmetry_Int_Tables_number   1
_chemical_formula_structural   AlInCl4
_chemical_formula_sum   'Al4 In4 Cl16'
_cell_volume   828.17385473
_cell_formula_units_Z   4
loop_
 _symmetry_equiv_pos_site_id
 _symmetry_equiv_pos_as_xyz
  1  'x, y, z'
loop_
 _atom_site_type_symbol
 _atom_site_label
 _atom_site_symmetry_multiplicity
 _atom_site_fract_x
 _atom_site_fract_y
 _atom_site_fract_z
 _atom_site_occupancy
  Al  Al0  1  0.75000001  0.21224777  0.56027697  1.0
  Al  Al1  1  0.24999999  0.78775228  0.43972304  1.0
  Al  Al2  1  0.74999993  0.41890217  0.03111578  1.0
  Al  Al3  1  0.25000006  0.58109778  0.96888422  1.0
  In  In4  1  0.49455271  0.61426298  0.71661313  1.0
  In  In5  1  0.50544729  0.38573701  0.28338688  1.0
  In  In6  1  0.99455276  0.38573696  0.28338666  1.0
  In  In7  1  0.00544726  0.61426309  0.71661333  1.0
  Cl  Cl8  1  0.75000007  0.10475366  0.39268424  1.0
  Cl  Cl9  1  0.91181990  0.23128223  0.05426201  1.0
  Cl  Cl10  1  0.74999988  0.54754575  0.53109662  1.0
  Cl  Cl11  1  0.41300908  0.88961838  0.34537914  1.0
  Cl  Cl12  1  0.74999996  0.59715350  0.85933962  1.0
  Cl  Cl13  1  0.74999992  0.62558605  0.16155231  1.0
  Cl  Cl14  1  0.58818010  0.23128233  0.05426203  1.0
  Cl  Cl15  1  0.08818007  0.76871777  0.94573804  1.0
  Cl  Cl16  1  0.24999997  0.89524642  0.60731578  1.0
  Cl  Cl17  1  0.58699096  0.11038170  0.65462086  1.0
  Cl  Cl18  1  0.08699087  0.88961852  0.34537920  1.0
  Cl  Cl19  1  0.25000009  0.45245426  0.46890338  1.0
  Cl  Cl20  1  0.25000001  0.40284635  0.14066035  1.0
  Cl  Cl21  1  0.91300912  0.11038165  0.65462081  1.0
  Cl  Cl22  1  0.41181992  0.76871753  0.94573795  1.0
  Cl  Cl23  1  0.25000006  0.37441386  0.83844765  1.0
