# generated using pymatgen
data_AlInO3
_symmetry_space_group_name_H-M   'P 1'
_cell_length_a   3.71640804
_cell_length_b   3.71640819
_cell_length_c   3.71640574
_cell_angle_alpha   89.99998797
_cell_angle_beta   90.00002004
_cell_angle_gamma   90.00003268
_symmetry_Int_Tables_number   1
_chemical_formula_structural   AlInO3
_chemical_formula_sum   'Al1 In1 O3'
_cell_volume   51.32984131
_cell_formula_units_Z   1
loop_
 _symmetry_equiv_pos_site_id
 _symmetry_equiv_pos_as_xyz
  1  'x, y, z'
loop_
 _atom_site_type_symbol
 _atom_site_label
 _atom_site_symmetry_multiplicity
 _atom_site_fract_x
 _atom_site_fract_y
 _atom_site_fract_z
 _atom_site_occupancy
  Al  Al0  1  0.50000000  0.50000000  0.50000000  1.0
  In  In1  1  0.99999998  0.00000001  0.00000002  1.0
  O  O2  1  0.50000002  0.50000000  0.99999998  1.0
  O  O3  1  0.50000001  0.00000000  0.49999998  1.0
  O  O4  1  0.99999999  0.49999998  0.50000001  1.0
