# generated using pymatgen
data_AlSbO4
_symmetry_space_group_name_H-M   'P 1'
_cell_length_a   4.56445030
_cell_length_b   4.56444992
_cell_length_c   3.04156539
_cell_angle_alpha   90.00000044
_cell_angle_beta   90.00000000
_cell_angle_gamma   91.84416533
_symmetry_Int_Tables_number   1
_chemical_formula_structural   AlSbO4
_chemical_formula_sum   'Al1 Sb1 O4'
_cell_volume   63.33577457
_cell_formula_units_Z   1
loop_
 _symmetry_equiv_pos_site_id
 _symmetry_equiv_pos_as_xyz
  1  'x, y, z'
loop_
 _atom_site_type_symbol
 _atom_site_label
 _atom_site_symmetry_multiplicity
 _atom_site_fract_x
 _atom_site_fract_y
 _atom_site_fract_z
 _atom_site_occupancy
  Al  Al0  1  0.50000000  0.50000000  0.99999999  1.0
  Sb  Sb1  1  0.00000000  0.00000000  0.50000000  1.0
  O  O2  1  0.31218758  0.31218757  0.50000002  1.0
  O  O3  1  0.68781241  0.68781243  0.49999999  1.0
  O  O4  1  0.79834619  0.20165383  0.99999999  1.0
  O  O5  1  0.20165381  0.79834617  0.00000001  1.0
