# generated using pymatgen
data_AlSBr
_symmetry_space_group_name_H-M   'P 1'
_cell_length_a   4.88549054
_cell_length_b   3.51400559
_cell_length_c   8.71742533
_cell_angle_alpha   89.99999614
_cell_angle_beta   90.00003153
_cell_angle_gamma   89.99999900
_symmetry_Int_Tables_number   1
_chemical_formula_structural   AlSBr
_chemical_formula_sum   'Al2 S2 Br2'
_cell_volume   149.65762910
_cell_formula_units_Z   2
loop_
 _symmetry_equiv_pos_site_id
 _symmetry_equiv_pos_as_xyz
  1  'x, y, z'
loop_
 _atom_site_type_symbol
 _atom_site_label
 _atom_site_symmetry_multiplicity
 _atom_site_fract_x
 _atom_site_fract_y
 _atom_site_fract_z
 _atom_site_occupancy
  Al  Al0  1  0.75000013  0.75000001  0.61261227  1.0
  Al  Al1  1  0.24999988  0.24999999  0.38738773  1.0
  S  S2  1  0.74999990  0.25000008  0.42569431  1.0
  S  S3  1  0.25000008  0.74999990  0.57430567  1.0
  Br  Br4  1  0.24999972  0.75000022  0.18008383  1.0
  Br  Br5  1  0.75000029  0.24999981  0.81991618  1.0
