# generated using pymatgen
data_AlVO4
_symmetry_space_group_name_H-M   'P 1'
_cell_length_a   5.65228028
_cell_length_b   5.65224953
_cell_length_c   5.65208766
_cell_angle_alpha   115.83591991
_cell_angle_beta   115.83620276
_cell_angle_gamma   97.37516095
_symmetry_Int_Tables_number   1
_chemical_formula_structural   AlVO4
_chemical_formula_sum   'Al2 V2 O8'
_cell_volume   134.51507081
_cell_formula_units_Z   2
loop_
 _symmetry_equiv_pos_site_id
 _symmetry_equiv_pos_as_xyz
  1  'x, y, z'
loop_
 _atom_site_type_symbol
 _atom_site_label
 _atom_site_symmetry_multiplicity
 _atom_site_fract_x
 _atom_site_fract_y
 _atom_site_fract_z
 _atom_site_occupancy
  Al  Al0  1  0.12500590  0.87499672  0.25000116  1.0
  Al  Al1  1  0.87499368  0.12500352  0.74999871  1.0
  V  V2  1  0.37498677  0.62501250  0.74999784  1.0
  V  V3  1  0.62501261  0.37498802  0.25000209  1.0
  O  O4  1  0.75733911  0.74698099  0.48963490  1.0
  O  O5  1  0.26770405  0.75733575  0.51036046  1.0
  O  O6  1  0.74699515  0.75734424  0.98964473  1.0
  O  O7  1  0.75733194  0.26770738  0.01036698  1.0
  O  O8  1  0.73229182  0.24266794  0.48963117  1.0
  O  O9  1  0.24265745  0.25300702  0.51035710  1.0
  O  O10  1  0.24266440  0.73229668  0.98964127  1.0
  O  O11  1  0.25301713  0.24265926  0.01036357  1.0
