# generated using pymatgen
data_AsPO5
_symmetry_space_group_name_H-M   'P 1'
_cell_length_a   6.13406404
_cell_length_b   7.41100900
_cell_length_c   6.77875897
_cell_angle_alpha   90.00001803
_cell_angle_beta   89.99999867
_cell_angle_gamma   90.00000154
_symmetry_Int_Tables_number   1
_chemical_formula_structural   AsPO5
_chemical_formula_sum   'As4 P4 O20'
_cell_volume   308.15969708
_cell_formula_units_Z   4
loop_
 _symmetry_equiv_pos_site_id
 _symmetry_equiv_pos_as_xyz
  1  'x, y, z'
loop_
 _atom_site_type_symbol
 _atom_site_label
 _atom_site_symmetry_multiplicity
 _atom_site_fract_x
 _atom_site_fract_y
 _atom_site_fract_z
 _atom_site_occupancy
  As  As0  1  0.25000000  0.74438420  0.12906273  1.0
  As  As1  1  0.75000001  0.24438379  0.37093709  1.0
  As  As2  1  0.24999999  0.75561572  0.62906320  1.0
  As  As3  1  0.75000001  0.25561574  0.87093723  1.0
  P  P4  1  0.75000001  0.61413664  0.12836651  1.0
  P  P5  1  0.25000001  0.11412359  0.37163077  1.0
  P  P6  1  0.74999998  0.88586557  0.62836754  1.0
  P  P7  1  0.24999999  0.38587676  0.87163260  1.0
  O  O8  1  0.24999996  0.49762942  0.06552310  1.0
  O  O9  1  0.74999999  0.16567632  0.11910748  1.0
  O  O10  1  0.55628841  0.74710127  0.13007499  1.0
  O  O11  1  0.94371159  0.74710132  0.13007503  1.0
  O  O12  1  0.25000004  0.98970402  0.18944084  1.0
  O  O13  1  0.75000001  0.48970104  0.31056426  1.0
  O  O14  1  0.05628432  0.24710278  0.36992418  1.0
  O  O15  1  0.44371569  0.24710279  0.36992422  1.0
  O  O16  1  0.24999999  0.66567821  0.38089246  1.0
  O  O17  1  0.75000000  0.99763095  0.43447333  1.0
  O  O18  1  0.25000000  0.00236993  0.56552382  1.0
  O  O19  1  0.75000002  0.33432319  0.61910785  1.0
  O  O20  1  0.55628749  0.75289868  0.63007557  1.0
  O  O21  1  0.94371250  0.75289869  0.63007560  1.0
  O  O22  1  0.24999997  0.51029629  0.68944055  1.0
  O  O23  1  0.74999995  0.01029820  0.81056355  1.0
  O  O24  1  0.05628407  0.25289650  0.86992515  1.0
  O  O25  1  0.44371595  0.25289655  0.86992517  1.0
  O  O26  1  0.25000000  0.83432273  0.88089207  1.0
  O  O27  1  0.75000006  0.50236911  0.93447309  1.0
