# generated using pymatgen
data_Ba2CeNbO6
_symmetry_space_group_name_H-M   'P 1'
_cell_length_a   6.09591012
_cell_length_b   6.09589492
_cell_length_c   6.09589994
_cell_angle_alpha   60.55201358
_cell_angle_beta   60.55207094
_cell_angle_gamma   60.55203700
_symmetry_Int_Tables_number   1
_chemical_formula_structural   Ba2CeNbO6
_chemical_formula_sum   'Ba2 Ce1 Nb1 O6'
_cell_volume   162.17421261
_cell_formula_units_Z   1
loop_
 _symmetry_equiv_pos_site_id
 _symmetry_equiv_pos_as_xyz
  1  'x, y, z'
loop_
 _atom_site_type_symbol
 _atom_site_label
 _atom_site_symmetry_multiplicity
 _atom_site_fract_x
 _atom_site_fract_y
 _atom_site_fract_z
 _atom_site_occupancy
  Ba  Ba0  1  0.74835856  0.74835902  0.74835873  1.0
  Ba  Ba1  1  0.25164143  0.25164098  0.25164128  1.0
  Ce  Ce2  1  0.00000000  0.99999998  0.00000000  1.0
  Nb  Nb3  1  0.50000000  0.50000000  0.49999999  1.0
  O  O4  1  0.31386243  0.73181050  0.21674454  1.0
  O  O5  1  0.21674414  0.31386245  0.73181083  1.0
  O  O6  1  0.73181030  0.21674417  0.31386300  1.0
  O  O7  1  0.68613756  0.26818952  0.78325546  1.0
  O  O8  1  0.26818970  0.78325584  0.68613700  1.0
  O  O9  1  0.78325586  0.68613756  0.26818917  1.0
