# generated using pymatgen
data_Ba2DyNbO6
_symmetry_space_group_name_H-M   'P 1'
_cell_length_a   6.03714555
_cell_length_b   6.05654001
_cell_length_c   10.45860618
_cell_angle_alpha   54.70318142
_cell_angle_beta   90.00003509
_cell_angle_gamma   90.00001422
_symmetry_Int_Tables_number   1
_chemical_formula_structural   Ba2DyNbO6
_chemical_formula_sum   'Ba4 Dy2 Nb2 O12'
_cell_volume   312.11202494
_cell_formula_units_Z   2
loop_
 _symmetry_equiv_pos_site_id
 _symmetry_equiv_pos_as_xyz
  1  'x, y, z'
loop_
 _atom_site_type_symbol
 _atom_site_label
 _atom_site_symmetry_multiplicity
 _atom_site_fract_x
 _atom_site_fract_y
 _atom_site_fract_z
 _atom_site_occupancy
  Ba  Ba0  1  0.50435617  0.75189240  0.74964681  1.0
  Ba  Ba1  1  0.99564384  0.75189223  0.24964672  1.0
  Ba  Ba2  1  0.00435597  0.24810781  0.75035306  1.0
  Ba  Ba3  1  0.49564334  0.24810778  0.25035302  1.0
  Dy  Dy4  1  0.49999987  0.49999984  0.50000004  1.0
  Dy  Dy5  1  0.00000001  0.50000010  0.99999996  1.0
  Nb  Nb6  1  0.50000013  0.00000002  0.00000004  1.0
  Nb  Nb7  1  0.99999993  0.99999999  0.49999997  1.0
  O  O8  1  0.99722139  0.72607991  0.73642852  1.0
  O  O9  1  0.49722187  0.27391975  0.76357151  1.0
  O  O10  1  0.00277856  0.27392049  0.26357155  1.0
  O  O11  1  0.50277824  0.72607990  0.23642847  1.0
  O  O12  1  0.77239297  0.22643521  0.51929797  1.0
  O  O13  1  0.27239281  0.77356480  0.98070202  1.0
  O  O14  1  0.22760723  0.77356469  0.48070216  1.0
  O  O15  1  0.72760716  0.22643540  0.01929803  1.0
  O  O16  1  0.25314776  0.20709816  0.01941374  1.0
  O  O17  1  0.75314817  0.79290199  0.48058570  1.0
  O  O18  1  0.74685234  0.79290173  0.98058641  1.0
  O  O19  1  0.24685225  0.20709781  0.51941431  1.0
