# generated using pymatgen
data_Ba2DyNbO6
_symmetry_space_group_name_H-M   'P 1'
_cell_length_a   6.03833171
_cell_length_b   6.03833603
_cell_length_c   6.05742661
_cell_angle_alpha   59.91942761
_cell_angle_beta   59.91942095
_cell_angle_gamma   60.02611412
_symmetry_Int_Tables_number   1
_chemical_formula_structural   Ba2DyNbO6
_chemical_formula_sum   'Ba2 Dy1 Nb1 O6'
_cell_volume   156.01373466
_cell_formula_units_Z   1
loop_
 _symmetry_equiv_pos_site_id
 _symmetry_equiv_pos_as_xyz
  1  'x, y, z'
loop_
 _atom_site_type_symbol
 _atom_site_label
 _atom_site_symmetry_multiplicity
 _atom_site_fract_x
 _atom_site_fract_y
 _atom_site_fract_z
 _atom_site_occupancy
  Ba  Ba0  1  0.25021427  0.25021384  0.25080201  1.0
  Ba  Ba1  1  0.74978588  0.74978635  0.74919781  1.0
  Dy  Dy2  1  0.00000005  0.00000003  0.99999993  1.0
  Nb  Nb3  1  0.50000002  0.50000003  0.49999998  1.0
  O  O4  1  0.28421468  0.75835360  0.71485996  1.0
  O  O5  1  0.24164532  0.71578531  0.28514109  1.0
  O  O6  1  0.71578513  0.24164636  0.28514004  1.0
  O  O7  1  0.75835448  0.28421474  0.71485909  1.0
  O  O8  1  0.73635698  0.73635598  0.22205885  1.0
  O  O9  1  0.26364319  0.26364375  0.77794125  1.0
