# generated using pymatgen
data_Ba2ErTaO6
_symmetry_space_group_name_H-M   'P 1'
_cell_length_a   6.00517705
_cell_length_b   6.00517476
_cell_length_c   6.00517155
_cell_angle_alpha   60.00009645
_cell_angle_beta   59.99996754
_cell_angle_gamma   59.99994948
_symmetry_Int_Tables_number   1
_chemical_formula_structural   Ba2ErTaO6
_chemical_formula_sum   'Ba2 Er1 Ta1 O6'
_cell_volume   153.13058144
_cell_formula_units_Z   1
loop_
 _symmetry_equiv_pos_site_id
 _symmetry_equiv_pos_as_xyz
  1  'x, y, z'
loop_
 _atom_site_type_symbol
 _atom_site_label
 _atom_site_symmetry_multiplicity
 _atom_site_fract_x
 _atom_site_fract_y
 _atom_site_fract_z
 _atom_site_occupancy
  Ba  Ba0  1  0.24999960  0.24999997  0.24999965  1.0
  Ba  Ba1  1  0.75000010  0.75000015  0.74999970  1.0
  Er  Er2  1  0.49999942  0.50000099  0.50000359  1.0
  Ta  Ta3  1  0.99999993  0.00000024  0.00000060  1.0
  O  O4  1  0.76291664  0.23708347  0.23708292  1.0
  O  O5  1  0.23708328  0.76291645  0.76291604  1.0
  O  O6  1  0.23708354  0.76291632  0.23708283  1.0
  O  O7  1  0.76291680  0.23708298  0.76291595  1.0
  O  O8  1  0.23708369  0.23708316  0.76291577  1.0
  O  O9  1  0.76291701  0.76291628  0.23708294  1.0
