# generated using pymatgen
data_Ba2GeOF6
_symmetry_space_group_name_H-M   'P 1'
_cell_length_a   7.48962221
_cell_length_b   7.48962218
_cell_length_c   6.90855071
_cell_angle_alpha   63.97737934
_cell_angle_beta   63.97736151
_cell_angle_gamma   79.28914586
_symmetry_Int_Tables_number   1
_chemical_formula_structural   Ba2GeOF6
_chemical_formula_sum   'Ba4 Ge2 O2 F12'
_cell_volume   312.92849531
_cell_formula_units_Z   2
loop_
 _symmetry_equiv_pos_site_id
 _symmetry_equiv_pos_as_xyz
  1  'x, y, z'
loop_
 _atom_site_type_symbol
 _atom_site_label
 _atom_site_symmetry_multiplicity
 _atom_site_fract_x
 _atom_site_fract_y
 _atom_site_fract_z
 _atom_site_occupancy
  Ba  Ba0  1  0.17383604  0.41844372  0.16011186  1.0
  Ba  Ba1  1  0.17895133  0.82226976  0.49863705  1.0
  Ba  Ba2  1  0.82226975  0.17895140  0.99863658  1.0
  Ba  Ba3  1  0.41844385  0.17383620  0.66011164  1.0
  Ge  Ge4  1  0.67631206  0.67284481  0.10639165  1.0
  Ge  Ge5  1  0.67284490  0.67631205  0.60639171  1.0
  O  O6  1  0.60604555  0.73596519  0.35998828  1.0
  O  O7  1  0.73596546  0.60604563  0.85998803  1.0
  F  F8  1  0.14935921  0.07524872  0.10741057  1.0
  F  F9  1  0.57999693  0.40840822  0.75104483  1.0
  F  F10  1  0.60355235  0.93413839  0.95277079  1.0
  F  F11  1  0.40715874  0.75628891  0.76356455  1.0
  F  F12  1  0.94119358  0.75750510  0.98073381  1.0
  F  F13  1  0.44203335  0.15864804  0.27624738  1.0
  F  F14  1  0.15864801  0.44203291  0.77624779  1.0
  F  F15  1  0.93413860  0.60355250  0.45277056  1.0
  F  F16  1  0.75628870  0.40715872  0.26356448  1.0
  F  F17  1  0.40840821  0.57999659  0.25104501  1.0
  F  F18  1  0.07524827  0.14935955  0.60740972  1.0
  F  F19  1  0.75750510  0.94119361  0.48073372  1.0
