# generated using pymatgen
data_Ba2GeO4
_symmetry_space_group_name_H-M   'P 1'
_cell_length_a   4.06406838
_cell_length_b   4.06406650
_cell_length_c   7.17644563
_cell_angle_alpha   106.44886081
_cell_angle_beta   106.44880566
_cell_angle_gamma   89.99988071
_symmetry_Int_Tables_number   1
_chemical_formula_structural   Ba2GeO4
_chemical_formula_sum   'Ba2 Ge1 O4'
_cell_volume   108.61214009
_cell_formula_units_Z   1
loop_
 _symmetry_equiv_pos_site_id
 _symmetry_equiv_pos_as_xyz
  1  'x, y, z'
loop_
 _atom_site_type_symbol
 _atom_site_label
 _atom_site_symmetry_multiplicity
 _atom_site_fract_x
 _atom_site_fract_y
 _atom_site_fract_z
 _atom_site_occupancy
  Ba  Ba0  1  0.64273928  0.64274006  0.28547877  1.0
  Ba  Ba1  1  0.35726167  0.35725996  0.71452117  1.0
  Ge  Ge2  1  0.00000142  0.99999975  0.00000001  1.0
  O  O3  1  0.85576888  0.85576913  0.71155593  1.0
  O  O4  1  0.14422932  0.14423136  0.28844398  1.0
  O  O5  1  0.00000049  0.50000005  0.00000011  1.0
  O  O6  1  0.49999893  0.99999969  0.00000005  1.0
