# generated using pymatgen
data_Ba2GeS4
_symmetry_space_group_name_H-M   'P 1'
_cell_length_a   6.90176705
_cell_length_b   9.06022537
_cell_length_c   12.67359127
_cell_angle_alpha   89.99996565
_cell_angle_beta   90.00001838
_cell_angle_gamma   90.00000910
_symmetry_Int_Tables_number   1
_chemical_formula_structural   Ba2GeS4
_chemical_formula_sum   'Ba8 Ge4 S16'
_cell_volume   792.49949532
_cell_formula_units_Z   4
loop_
 _symmetry_equiv_pos_site_id
 _symmetry_equiv_pos_as_xyz
  1  'x, y, z'
loop_
 _atom_site_type_symbol
 _atom_site_label
 _atom_site_symmetry_multiplicity
 _atom_site_fract_x
 _atom_site_fract_y
 _atom_site_fract_z
 _atom_site_occupancy
  Ba  Ba0  1  0.25000055  0.98186832  0.33071693  1.0
  Ba  Ba1  1  0.74999961  0.01813169  0.66928314  1.0
  Ba  Ba2  1  0.24999979  0.48186828  0.16928311  1.0
  Ba  Ba3  1  0.75000044  0.51813170  0.83071703  1.0
  Ba  Ba4  1  0.24999981  0.62396696  0.57387873  1.0
  Ba  Ba5  1  0.74999985  0.37603316  0.42612097  1.0
  Ba  Ba6  1  0.24999945  0.12396701  0.92612090  1.0
  Ba  Ba7  1  0.75000019  0.87603285  0.07387913  1.0
  Ge  Ge8  1  0.25000030  0.72703515  0.92536185  1.0
  Ge  Ge9  1  0.25000011  0.22703518  0.57463787  1.0
  Ge  Ge10  1  0.75000019  0.77296479  0.42536221  1.0
  Ge  Ge11  1  0.74999977  0.27296480  0.07463817  1.0
  S  S12  1  0.51329246  0.32655272  0.64461674  1.0
  S  S13  1  0.01329206  0.67344765  0.35538312  1.0
  S  S14  1  0.98670753  0.82655270  0.85538310  1.0
  S  S15  1  0.48670781  0.17344698  0.14461667  1.0
  S  S16  1  0.51329240  0.82655268  0.85538319  1.0
  S  S17  1  0.48670759  0.67344737  0.35538345  1.0
  S  S18  1  0.01329233  0.17344712  0.14461673  1.0
  S  S19  1  0.98670788  0.32655275  0.64461673  1.0
  S  S20  1  0.74999977  0.51609576  0.09209969  1.0
  S  S21  1  0.24999952  0.48390400  0.90790056  1.0
  S  S22  1  0.75000012  0.01609614  0.40790084  1.0
  S  S23  1  0.24999986  0.98390426  0.59209944  1.0
  S  S24  1  0.74999935  0.18901972  0.90819196  1.0
  S  S25  1  0.25000094  0.81098016  0.09180783  1.0
  S  S26  1  0.75000054  0.68901994  0.59180815  1.0
  S  S27  1  0.24999979  0.31098014  0.40819174  1.0
