# generated using pymatgen
data_Ba2LaNbO6
_symmetry_space_group_name_H-M   'P 1'
_cell_length_a   6.14803101
_cell_length_b   6.14803093
_cell_length_c   6.14803116
_cell_angle_alpha   60.67640979
_cell_angle_beta   60.67640632
_cell_angle_gamma   60.67640688
_symmetry_Int_Tables_number   1
_chemical_formula_structural   Ba2LaNbO6
_chemical_formula_sum   'Ba2 La1 Nb1 O6'
_cell_volume   166.83005431
_cell_formula_units_Z   1
loop_
 _symmetry_equiv_pos_site_id
 _symmetry_equiv_pos_as_xyz
  1  'x, y, z'
loop_
 _atom_site_type_symbol
 _atom_site_label
 _atom_site_symmetry_multiplicity
 _atom_site_fract_x
 _atom_site_fract_y
 _atom_site_fract_z
 _atom_site_occupancy
  Ba  Ba0  1  0.74806580  0.74806583  0.74806573  1.0
  Ba  Ba1  1  0.25193422  0.25193422  0.25193415  1.0
  La  La2  1  0.00000005  0.00000001  0.99999993  1.0
  Nb  Nb3  1  0.50000002  0.49999999  0.49999999  1.0
  O  O4  1  0.32948425  0.72463029  0.21191969  1.0
  O  O5  1  0.21191964  0.32948426  0.72463037  1.0
  O  O6  1  0.72463028  0.21191965  0.32948429  1.0
  O  O7  1  0.67051571  0.27536970  0.78808036  1.0
  O  O8  1  0.27536969  0.78808034  0.67051575  1.0
  O  O9  1  0.78808035  0.67051571  0.27536974  1.0
