# generated using pymatgen
data_Ba2LuTaO6
_symmetry_space_group_name_H-M   'P 1'
_cell_length_a   5.96614856
_cell_length_b   5.96614905
_cell_length_c   5.96614881
_cell_angle_alpha   59.99998583
_cell_angle_beta   60.00001707
_cell_angle_gamma   59.99998589
_symmetry_Int_Tables_number   1
_chemical_formula_structural   Ba2LuTaO6
_chemical_formula_sum   'Ba2 Lu1 Ta1 O6'
_cell_volume   150.16447745
_cell_formula_units_Z   1
loop_
 _symmetry_equiv_pos_site_id
 _symmetry_equiv_pos_as_xyz
  1  'x, y, z'
loop_
 _atom_site_type_symbol
 _atom_site_label
 _atom_site_symmetry_multiplicity
 _atom_site_fract_x
 _atom_site_fract_y
 _atom_site_fract_z
 _atom_site_occupancy
  Ba  Ba0  1  0.24999973  0.25000025  0.25000007  1.0
  Ba  Ba1  1  0.75000030  0.74999969  0.75000011  1.0
  Lu  Lu2  1  0.49999982  0.50000021  0.49999995  1.0
  Ta  Ta3  1  0.99999998  0.00000005  0.00000002  1.0
  O  O4  1  0.76119043  0.23880981  0.23880961  1.0
  O  O5  1  0.23880968  0.76118998  0.76119027  1.0
  O  O6  1  0.23881014  0.76119030  0.23880961  1.0
  O  O7  1  0.76119000  0.23880963  0.76119012  1.0
  O  O8  1  0.23880973  0.23880979  0.76119046  1.0
  O  O9  1  0.76119018  0.76119028  0.23880978  1.0
