# generated using pymatgen
data_Ba2MnOF6
_symmetry_space_group_name_H-M   'P 1'
_cell_length_a   7.45274094
_cell_length_b   7.45273800
_cell_length_c   7.06859580
_cell_angle_alpha   63.27094151
_cell_angle_beta   63.27092926
_cell_angle_gamma   78.87931005
_symmetry_Int_Tables_number   1
_chemical_formula_structural   Ba2MnOF6
_chemical_formula_sum   'Ba4 Mn2 O2 F12'
_cell_volume   313.16778957
_cell_formula_units_Z   2
loop_
 _symmetry_equiv_pos_site_id
 _symmetry_equiv_pos_as_xyz
  1  'x, y, z'
loop_
 _atom_site_type_symbol
 _atom_site_label
 _atom_site_symmetry_multiplicity
 _atom_site_fract_x
 _atom_site_fract_y
 _atom_site_fract_z
 _atom_site_occupancy
  Ba  Ba0  1  0.17418816  0.41873469  0.15775266  1.0
  Ba  Ba1  1  0.17435809  0.82187116  0.50123316  1.0
  Ba  Ba2  1  0.82187110  0.17435780  0.00123333  1.0
  Ba  Ba3  1  0.41873455  0.17418818  0.65775264  1.0
  Mn  Mn4  1  0.67650027  0.67159399  0.10646758  1.0
  Mn  Mn5  1  0.67159398  0.67650025  0.60646748  1.0
  O  O6  1  0.60555072  0.74129836  0.35810539  1.0
  O  O7  1  0.74129823  0.60555045  0.85810530  1.0
  F  F8  1  0.15186755  0.07394142  0.10811149  1.0
  F  F9  1  0.57972039  0.40771157  0.75052436  1.0
  F  F10  1  0.60489200  0.93325714  0.95041630  1.0
  F  F11  1  0.40643535  0.75485686  0.76522651  1.0
  F  F12  1  0.94224881  0.75900129  0.98040609  1.0
  F  F13  1  0.44134788  0.15882333  0.27865626  1.0
  F  F14  1  0.15882333  0.44134785  0.77865638  1.0
  F  F15  1  0.93325794  0.60489422  0.45041460  1.0
  F  F16  1  0.75485848  0.40643579  0.26522542  1.0
  F  F17  1  0.40771191  0.57971862  0.25052613  1.0
  F  F18  1  0.07394148  0.15186792  0.60811127  1.0
  F  F19  1  0.75899975  0.94224909  0.48040766  1.0
