# generated using pymatgen
data_Ba2MnO4
_symmetry_space_group_name_H-M   'P 1'
_cell_length_a   4.04938939
_cell_length_b   4.04940207
_cell_length_c   7.23387692
_cell_angle_alpha   106.25265855
_cell_angle_beta   106.25118018
_cell_angle_gamma   90.00442799
_symmetry_Int_Tables_number   1
_chemical_formula_structural   Ba2MnO4
_chemical_formula_sum   'Ba2 Mn1 O4'
_cell_volume   108.93157036
_cell_formula_units_Z   1
loop_
 _symmetry_equiv_pos_site_id
 _symmetry_equiv_pos_as_xyz
  1  'x, y, z'
loop_
 _atom_site_type_symbol
 _atom_site_label
 _atom_site_symmetry_multiplicity
 _atom_site_fract_x
 _atom_site_fract_y
 _atom_site_fract_z
 _atom_site_occupancy
  Ba  Ba0  1  0.64275238  0.64276181  0.28551720  1.0
  Ba  Ba1  1  0.35725423  0.35724792  0.71449006  1.0
  Mn  Mn2  1  0.00000043  0.00000016  0.00000023  1.0
  O  O3  1  0.85198026  0.85195423  0.70392678  1.0
  O  O4  1  0.14802435  0.14802865  0.29607048  1.0
  O  O5  1  0.99999175  0.49999897  0.99999755  1.0
  O  O6  1  0.49999659  0.00000827  0.99999770  1.0
