# generated using pymatgen
data_Ba2NdNbO6
_symmetry_space_group_name_H-M   'P 1'
_cell_length_a   6.15491625
_cell_length_b   6.15492128
_cell_length_c   6.15490096
_cell_angle_alpha   120.52326928
_cell_angle_beta   120.52312836
_cell_angle_gamma   89.09614443
_symmetry_Int_Tables_number   1
_chemical_formula_structural   Ba2NdNbO6
_chemical_formula_sum   'Ba2 Nd1 Nb1 O6'
_cell_volume   163.54755696
_cell_formula_units_Z   1
loop_
 _symmetry_equiv_pos_site_id
 _symmetry_equiv_pos_as_xyz
  1  'x, y, z'
loop_
 _atom_site_type_symbol
 _atom_site_label
 _atom_site_symmetry_multiplicity
 _atom_site_fract_x
 _atom_site_fract_y
 _atom_site_fract_z
 _atom_site_occupancy
  Ba  Ba0  1  0.25000009  0.75000009  0.49999981  1.0
  Ba  Ba1  1  0.75000000  0.24999988  0.50000019  1.0
  Nd  Nd2  1  0.99999996  0.00000010  0.00000011  1.0
  Nb  Nb3  1  0.49999995  0.50000005  0.00000004  1.0
  O  O4  1  0.68395812  0.77754720  0.46150595  1.0
  O  O5  1  0.77754643  0.31604220  0.09358860  1.0
  O  O6  1  0.22245345  0.68395779  0.90641124  1.0
  O  O7  1  0.31604198  0.22245279  0.53849413  1.0
  O  O8  1  0.26767468  0.26767515  0.00000175  1.0
  O  O9  1  0.73232534  0.73232474  0.99999819  1.0
