# generated using pymatgen
data_Ba2NdNbO6
_symmetry_space_group_name_H-M   'P 1'
_cell_length_a   6.11086319
_cell_length_b   6.11086197
_cell_length_c   6.11086394
_cell_angle_alpha   60.62193975
_cell_angle_beta   60.62195301
_cell_angle_gamma   60.62196976
_symmetry_Int_Tables_number   1
_chemical_formula_structural   Ba2NdNbO6
_chemical_formula_sum   'Ba2 Nd1 Nb1 O6'
_cell_volume   163.62505945
_cell_formula_units_Z   1
loop_
 _symmetry_equiv_pos_site_id
 _symmetry_equiv_pos_as_xyz
  1  'x, y, z'
loop_
 _atom_site_type_symbol
 _atom_site_label
 _atom_site_symmetry_multiplicity
 _atom_site_fract_x
 _atom_site_fract_y
 _atom_site_fract_z
 _atom_site_occupancy
  Ba  Ba0  1  0.74801277  0.74801271  0.74801259  1.0
  Ba  Ba1  1  0.25198733  0.25198726  0.25198740  1.0
  Nd  Nd2  1  0.00000000  0.00000006  0.99999999  1.0
  Nb  Nb3  1  0.49999970  0.50000011  0.50000002  1.0
  O  O4  1  0.32333662  0.72783167  0.21424737  1.0
  O  O5  1  0.21424746  0.32333680  0.72783154  1.0
  O  O6  1  0.72783181  0.21424730  0.32333663  1.0
  O  O7  1  0.67666345  0.27216826  0.78575265  1.0
  O  O8  1  0.27216820  0.78575267  0.67666343  1.0
  O  O9  1  0.78575266  0.67666316  0.27216836  1.0
