# generated using pymatgen
data_Ba2NdVO6
_symmetry_space_group_name_H-M   'P 1'
_cell_length_a   5.99943042
_cell_length_b   5.99942596
_cell_length_c   6.03498700
_cell_angle_alpha   59.90354507
_cell_angle_beta   59.90356423
_cell_angle_gamma   59.85704501
_symmetry_Int_Tables_number   1
_chemical_formula_structural   Ba2NdVO6
_chemical_formula_sum   'Ba2 Nd1 V1 O6'
_cell_volume   153.20621568
_cell_formula_units_Z   1
loop_
 _symmetry_equiv_pos_site_id
 _symmetry_equiv_pos_as_xyz
  1  'x, y, z'
loop_
 _atom_site_type_symbol
 _atom_site_label
 _atom_site_symmetry_multiplicity
 _atom_site_fract_x
 _atom_site_fract_y
 _atom_site_fract_z
 _atom_site_occupancy
  Ba  Ba0  1  0.24797057  0.24796933  0.25250955  1.0
  Ba  Ba1  1  0.75203146  0.75202894  0.74748953  1.0
  Nd  Nd2  1  0.99999963  0.00000047  0.99999894  1.0
  V  V3  1  0.49999802  0.50000221  0.50000000  1.0
  O  O4  1  0.28993703  0.74424999  0.70707808  1.0
  O  O5  1  0.25575213  0.71006245  0.29292117  1.0
  O  O6  1  0.71006200  0.25574991  0.29292345  1.0
  O  O7  1  0.74424829  0.28993789  0.70707897  1.0
  O  O8  1  0.72542682  0.72542380  0.24139185  1.0
  O  O9  1  0.27457406  0.27457501  0.75860845  1.0
