# generated using pymatgen
data_Ba2NdNbO6
_symmetry_space_group_name_H-M   'P 1'
_cell_length_a   6.13073068
_cell_length_b   6.16107560
_cell_length_c   10.59180244
_cell_angle_alpha   54.80023374
_cell_angle_beta   89.99999062
_cell_angle_gamma   89.99998345
_symmetry_Int_Tables_number   1
_chemical_formula_structural   Ba2NdNbO6
_chemical_formula_sum   'Ba4 Nd2 Nb2 O12'
_cell_volume   326.91810373
_cell_formula_units_Z   2
loop_
 _symmetry_equiv_pos_site_id
 _symmetry_equiv_pos_as_xyz
  1  'x, y, z'
loop_
 _atom_site_type_symbol
 _atom_site_label
 _atom_site_symmetry_multiplicity
 _atom_site_fract_x
 _atom_site_fract_y
 _atom_site_fract_z
 _atom_site_occupancy
  Ba  Ba0  1  0.51486810  0.75631334  0.74898201  1.0
  Ba  Ba1  1  0.98513174  0.75631324  0.24898197  1.0
  Ba  Ba2  1  0.01486827  0.24368659  0.75101805  1.0
  Ba  Ba3  1  0.48513177  0.24368667  0.25101808  1.0
  Nd  Nd4  1  0.49999998  0.49999997  0.49999998  1.0
  Nd  Nd5  1  0.00000001  0.50000003  0.00000001  1.0
  Nb  Nb6  1  0.50000002  0.99999992  0.00000004  1.0
  Nb  Nb7  1  0.00000006  0.00000023  0.49999996  1.0
  O  O8  1  0.99095972  0.70596728  0.73058188  1.0
  O  O9  1  0.49095972  0.29403260  0.76941826  1.0
  O  O10  1  0.00904024  0.29403270  0.26941814  1.0
  O  O11  1  0.50904030  0.70596746  0.23058173  1.0
  O  O12  1  0.78565001  0.21464033  0.53352468  1.0
  O  O13  1  0.28565010  0.78535966  0.96647530  1.0
  O  O14  1  0.21435003  0.78535974  0.46647525  1.0
  O  O15  1  0.71434991  0.21464028  0.03352470  1.0
  O  O16  1  0.24832218  0.17658807  0.03471052  1.0
  O  O17  1  0.74832185  0.82341175  0.46528945  1.0
  O  O18  1  0.75167789  0.82341189  0.96528949  1.0
  O  O19  1  0.25167810  0.17658827  0.53471048  1.0
