# generated using pymatgen
data_Ba2PrNbO6
_symmetry_space_group_name_H-M   'P 1'
_cell_length_a   6.13694594
_cell_length_b   6.13694467
_cell_length_c   6.19552538
_cell_angle_alpha   60.09407952
_cell_angle_beta   60.09407062
_cell_angle_gamma   60.13946110
_symmetry_Int_Tables_number   1
_chemical_formula_structural   Ba2PrNbO6
_chemical_formula_sum   'Ba2 Pr1 Nb1 O6'
_cell_volume   165.40196941
_cell_formula_units_Z   1
loop_
 _symmetry_equiv_pos_site_id
 _symmetry_equiv_pos_as_xyz
  1  'x, y, z'
loop_
 _atom_site_type_symbol
 _atom_site_label
 _atom_site_symmetry_multiplicity
 _atom_site_fract_x
 _atom_site_fract_y
 _atom_site_fract_z
 _atom_site_occupancy
  Ba  Ba0  1  0.24831186  0.24831193  0.25790455  1.0
  Ba  Ba1  1  0.75168811  0.75168811  0.74209544  1.0
  Pr  Pr2  1  0.99999989  0.00000003  0.00000002  1.0
  Nb  Nb3  1  0.50000001  0.49999997  0.50000012  1.0
  O  O4  1  0.30326001  0.76883158  0.69234672  1.0
  O  O5  1  0.23116840  0.69673999  0.30765326  1.0
  O  O6  1  0.69674001  0.23116844  0.30765322  1.0
  O  O7  1  0.76883166  0.30325999  0.69234669  1.0
  O  O8  1  0.72920853  0.72920842  0.20460249  1.0
  O  O9  1  0.27079151  0.27079154  0.79539750  1.0
