# generated using pymatgen
data_Ba2PrTaO6
_symmetry_space_group_name_H-M   'P 1'
_cell_length_a   6.14196332
_cell_length_b   6.16743815
_cell_length_c   10.60758090
_cell_angle_alpha   54.83021888
_cell_angle_beta   90.00017206
_cell_angle_gamma   89.99958774
_symmetry_Int_Tables_number   1
_chemical_formula_structural   Ba2PrTaO6
_chemical_formula_sum   'Ba4 Pr2 Ta2 O12'
_cell_volume   328.46487766
_cell_formula_units_Z   2
loop_
 _symmetry_equiv_pos_site_id
 _symmetry_equiv_pos_as_xyz
  1  'x, y, z'
loop_
 _atom_site_type_symbol
 _atom_site_label
 _atom_site_symmetry_multiplicity
 _atom_site_fract_x
 _atom_site_fract_y
 _atom_site_fract_z
 _atom_site_occupancy
  Ba  Ba0  1  0.51452460  0.75637933  0.74888820  1.0
  Ba  Ba1  1  0.98547672  0.75637834  0.24888851  1.0
  Ba  Ba2  1  0.01452331  0.24362157  0.75111152  1.0
  Ba  Ba3  1  0.48547540  0.24362069  0.25111181  1.0
  Pr  Pr4  1  0.50000000  0.49999989  0.50000006  1.0
  Pr  Pr5  1  0.99999994  0.50000016  0.99999986  1.0
  Ta  Ta6  1  0.49999997  0.00000013  0.99999986  1.0
  Ta  Ta7  1  0.99999999  0.99999994  0.50000012  1.0
  O  O8  1  0.99103450  0.70832945  0.72834068  1.0
  O  O9  1  0.49103794  0.29166309  0.77166638  1.0
  O  O10  1  0.00896552  0.29167049  0.27165940  1.0
  O  O11  1  0.50896203  0.70833681  0.22833369  1.0
  O  O12  1  0.78744401  0.21247323  0.53336689  1.0
  O  O13  1  0.28744007  0.78752557  0.96663187  1.0
  O  O14  1  0.21255597  0.78752686  0.46663303  1.0
  O  O15  1  0.71255994  0.21247443  0.03336816  1.0
  O  O16  1  0.25046333  0.17427298  0.03468167  1.0
  O  O17  1  0.75046017  0.82572537  0.46531791  1.0
  O  O18  1  0.74953671  0.82572696  0.96531835  1.0
  O  O19  1  0.24953988  0.17427472  0.53468202  1.0
