# generated using pymatgen
data_Ba2RuO4
_symmetry_space_group_name_H-M   'P 1'
_cell_length_a   5.87999085
_cell_length_b   7.82205878
_cell_length_c   12.92265446
_cell_angle_alpha   89.99999996
_cell_angle_beta   89.99999198
_cell_angle_gamma   90.00000000
_symmetry_Int_Tables_number   1
_chemical_formula_structural   Ba2RuO4
_chemical_formula_sum   'Ba8 Ru4 O16'
_cell_volume   594.35984025
_cell_formula_units_Z   4
loop_
 _symmetry_equiv_pos_site_id
 _symmetry_equiv_pos_as_xyz
  1  'x, y, z'
loop_
 _atom_site_type_symbol
 _atom_site_label
 _atom_site_symmetry_multiplicity
 _atom_site_fract_x
 _atom_site_fract_y
 _atom_site_fract_z
 _atom_site_occupancy
  Ba  Ba0  1  0.99999960  0.00000011  0.99999987  1.0
  Ba  Ba1  1  0.99999960  0.49999989  0.99999987  1.0
  Ba  Ba2  1  0.99281555  0.24999999  0.71322725  1.0
  Ba  Ba3  1  0.50718468  0.24999999  0.21322724  1.0
  Ba  Ba4  1  0.49999973  0.99999994  0.50000015  1.0
  Ba  Ba5  1  0.49999972  0.50000006  0.50000015  1.0
  Ba  Ba6  1  0.49281584  0.75000001  0.78677270  1.0
  Ba  Ba7  1  0.00718445  0.75000001  0.28677288  1.0
  Ru  Ru8  1  0.93478355  0.74999998  0.60153478  1.0
  Ru  Ru9  1  0.56521667  0.74999998  0.10153460  1.0
  Ru  Ru10  1  0.43478233  0.25000002  0.89846500  1.0
  Ru  Ru11  1  0.06521779  0.25000002  0.39846538  1.0
  O  O12  1  0.79552344  0.74999999  0.46462176  1.0
  O  O13  1  0.78122142  0.93912388  0.66536857  1.0
  O  O14  1  0.78122143  0.56087613  0.66536862  1.0
  O  O15  1  0.75033506  0.25000001  0.90579212  1.0
  O  O16  1  0.74967233  0.25000001  0.40579233  1.0
  O  O17  1  0.71877741  0.93912353  0.16536819  1.0
  O  O18  1  0.71877740  0.56087649  0.16536824  1.0
  O  O19  1  0.70447468  0.74999999  0.96462418  1.0
  O  O20  1  0.29552412  0.25000001  0.03537678  1.0
  O  O21  1  0.28122251  0.43912239  0.83463202  1.0
  O  O22  1  0.28122250  0.06087759  0.83463207  1.0
  O  O23  1  0.25033970  0.74999999  0.59420803  1.0
  O  O24  1  0.24966538  0.74999999  0.09420784  1.0
  O  O25  1  0.21877510  0.43912088  0.33463289  1.0
  O  O26  1  0.21877511  0.06087910  0.33463294  1.0
  O  O27  1  0.20447291  0.25000000  0.53537356  1.0
