# generated using pymatgen
data_Ba2RuO4
_symmetry_space_group_name_H-M   'P 1'
_cell_length_a   4.02032312
_cell_length_b   4.02032363
_cell_length_c   7.38076848
_cell_angle_alpha   105.80401991
_cell_angle_beta   105.80400873
_cell_angle_gamma   90.00013066
_symmetry_Int_Tables_number   1
_chemical_formula_structural   Ba2RuO4
_chemical_formula_sum   'Ba2 Ru1 O4'
_cell_volume   110.09179139
_cell_formula_units_Z   1
loop_
 _symmetry_equiv_pos_site_id
 _symmetry_equiv_pos_as_xyz
  1  'x, y, z'
loop_
 _atom_site_type_symbol
 _atom_site_label
 _atom_site_symmetry_multiplicity
 _atom_site_fract_x
 _atom_site_fract_y
 _atom_site_fract_z
 _atom_site_occupancy
  Ba  Ba0  1  0.64520754  0.64520755  0.29041549  1.0
  Ba  Ba1  1  0.35479244  0.35479245  0.70958450  1.0
  Ru  Ru2  1  0.00000000  0.00000000  0.00000000  1.0
  O  O3  1  0.84689591  0.84689583  0.69377119  1.0
  O  O4  1  0.15310411  0.15310420  0.30622882  1.0
  O  O5  1  0.00000000  0.50000000  0.00000001  1.0
  O  O6  1  0.50000000  0.99999996  0.99999999  1.0
