# generated using pymatgen
data_Ba2SrTeO6
_symmetry_space_group_name_H-M   'P 1'
_cell_length_a   6.15156993
_cell_length_b   6.15156993
_cell_length_c   6.15157038
_cell_angle_alpha   59.99997567
_cell_angle_beta   59.99997393
_cell_angle_gamma   59.99997045
_symmetry_Int_Tables_number   1
_chemical_formula_structural   Ba2SrTeO6
_chemical_formula_sum   'Ba2 Sr1 Te1 O6'
_cell_volume   164.60486526
_cell_formula_units_Z   1
loop_
 _symmetry_equiv_pos_site_id
 _symmetry_equiv_pos_as_xyz
  1  'x, y, z'
loop_
 _atom_site_type_symbol
 _atom_site_label
 _atom_site_symmetry_multiplicity
 _atom_site_fract_x
 _atom_site_fract_y
 _atom_site_fract_z
 _atom_site_occupancy
  Ba  Ba0  1  0.75000000  0.74999998  0.74999998  1.0
  Ba  Ba1  1  0.24999997  0.25000005  0.24999995  1.0
  Sr  Sr2  1  0.99999999  0.00000001  0.00000007  1.0
  Te  Te3  1  0.50000003  0.49999997  0.50000001  1.0
  O  O4  1  0.72460043  0.27539950  0.72460050  1.0
  O  O5  1  0.72460048  0.27539956  0.27539952  1.0
  O  O6  1  0.72460053  0.72460047  0.27539948  1.0
  O  O7  1  0.27539950  0.27539950  0.72460047  1.0
  O  O8  1  0.27539951  0.72460047  0.72460048  1.0
  O  O9  1  0.27539957  0.72460048  0.27539952  1.0
