# generated using pymatgen
data_Ba2SiOF6
_symmetry_space_group_name_H-M   'P 1'
_cell_length_a   7.39409803
_cell_length_b   7.39409795
_cell_length_c   6.68644023
_cell_angle_alpha   64.64277610
_cell_angle_beta   64.64277559
_cell_angle_gamma   79.68296999
_symmetry_Int_Tables_number   1
_chemical_formula_structural   Ba2SiOF6
_chemical_formula_sum   'Ba4 Si2 O2 F12'
_cell_volume   298.51412816
_cell_formula_units_Z   2
loop_
 _symmetry_equiv_pos_site_id
 _symmetry_equiv_pos_as_xyz
  1  'x, y, z'
loop_
 _atom_site_type_symbol
 _atom_site_label
 _atom_site_symmetry_multiplicity
 _atom_site_fract_x
 _atom_site_fract_y
 _atom_site_fract_z
 _atom_site_occupancy
  Ba  Ba0  1  0.17226126  0.42675913  0.16076595  1.0
  Ba  Ba1  1  0.18242669  0.82135715  0.49675742  1.0
  Ba  Ba2  1  0.82135714  0.18242666  0.99675746  1.0
  Ba  Ba3  1  0.42675913  0.17226126  0.66076595  1.0
  Si  Si4  1  0.67582043  0.67363533  0.10784068  1.0
  Si  Si5  1  0.67363535  0.67582040  0.60784071  1.0
  O  O6  1  0.62175731  0.72087050  0.36164949  1.0
  O  O7  1  0.72087052  0.62175731  0.86164949  1.0
  F  F8  1  0.14671287  0.07411417  0.10559791  1.0
  F  F9  1  0.58543562  0.42280215  0.74452198  1.0
  F  F10  1  0.60176246  0.92011437  0.97106547  1.0
  F  F11  1  0.42060829  0.75297247  0.75113374  1.0
  F  F12  1  0.92634309  0.75292200  0.98516457  1.0
  F  F13  1  0.43996700  0.15955763  0.27240284  1.0
  F  F14  1  0.15955767  0.43996702  0.77240277  1.0
  F  F15  1  0.92011438  0.60176246  0.47106546  1.0
  F  F16  1  0.75297249  0.42060828  0.25113372  1.0
  F  F17  1  0.42280215  0.58543563  0.24452195  1.0
  F  F18  1  0.07411415  0.14671300  0.60559787  1.0
  F  F19  1  0.75292200  0.92634306  0.48516458  1.0
