# generated using pymatgen
data_Ba2SnOF6
_symmetry_space_group_name_H-M   'P 1'
_cell_length_a   7.63392529
_cell_length_b   7.63392533
_cell_length_c   7.27491465
_cell_angle_alpha   62.96662442
_cell_angle_beta   62.96662195
_cell_angle_gamma   78.52067001
_symmetry_Int_Tables_number   1
_chemical_formula_structural   Ba2SnOF6
_chemical_formula_sum   'Ba4 Sn2 O2 F12'
_cell_volume   336.36263622
_cell_formula_units_Z   2
loop_
 _symmetry_equiv_pos_site_id
 _symmetry_equiv_pos_as_xyz
  1  'x, y, z'
loop_
 _atom_site_type_symbol
 _atom_site_label
 _atom_site_symmetry_multiplicity
 _atom_site_fract_x
 _atom_site_fract_y
 _atom_site_fract_z
 _atom_site_occupancy
  Ba  Ba0  1  0.17408908  0.40825503  0.16205153  1.0
  Ba  Ba1  1  0.17316719  0.82314305  0.50442599  1.0
  Ba  Ba2  1  0.82314303  0.17316713  0.00442603  1.0
  Ba  Ba3  1  0.40825497  0.17408911  0.66205154  1.0
  Sn  Sn4  1  0.67523098  0.67167569  0.10272615  1.0
  Sn  Sn5  1  0.67167552  0.67523121  0.60272556  1.0
  O  O6  1  0.58842664  0.75309034  0.35519396  1.0
  O  O7  1  0.75309052  0.58842660  0.85519383  1.0
  F  F8  1  0.15103042  0.07574735  0.11317869  1.0
  F  F9  1  0.57160754  0.38873871  0.76104175  1.0
  F  F10  1  0.60916267  0.95396931  0.92628304  1.0
  F  F11  1  0.39120872  0.75979480  0.77789837  1.0
  F  F12  1  0.95900031  0.76242957  0.97349436  1.0
  F  F13  1  0.44534321  0.16308938  0.28060653  1.0
  F  F14  1  0.16308926  0.44534317  0.78060659  1.0
  F  F15  1  0.95396939  0.60916276  0.42628302  1.0
  F  F16  1  0.75979482  0.39120861  0.27789833  1.0
  F  F17  1  0.38873874  0.57160748  0.26104177  1.0
  F  F18  1  0.07574736  0.15103036  0.61317873  1.0
  F  F19  1  0.76242965  0.95900034  0.47349422  1.0
