# generated using pymatgen
data_Ba2SnO4
_symmetry_space_group_name_H-M   'P 1'
_cell_length_a   4.22782791
_cell_length_b   4.22804155
_cell_length_c   7.35258523
_cell_angle_alpha   106.70796501
_cell_angle_beta   106.70931902
_cell_angle_gamma   89.99930945
_symmetry_Int_Tables_number   1
_chemical_formula_structural   Ba2SnO4
_chemical_formula_sum   'Ba2 Sn1 O4'
_cell_volume   120.07638281
_cell_formula_units_Z   1
loop_
 _symmetry_equiv_pos_site_id
 _symmetry_equiv_pos_as_xyz
  1  'x, y, z'
loop_
 _atom_site_type_symbol
 _atom_site_label
 _atom_site_symmetry_multiplicity
 _atom_site_fract_x
 _atom_site_fract_y
 _atom_site_fract_z
 _atom_site_occupancy
  Ba  Ba0  1  0.64560884  0.64558739  0.29118921  1.0
  Ba  Ba1  1  0.35438779  0.35441044  0.70881075  1.0
  Sn  Sn2  1  0.99999994  0.99999893  0.99999965  1.0
  O  O3  1  0.84432522  0.84435101  0.68866416  1.0
  O  O4  1  0.15568092  0.15565182  0.31133476  1.0
  O  O5  1  0.99999956  0.50000238  0.00000596  1.0
  O  O6  1  0.49999772  0.99999803  0.99999550  1.0
