# generated using pymatgen
data_Ba2SeO4
_symmetry_space_group_name_H-M   'P 1'
_cell_length_a   4.16985653
_cell_length_b   4.16985639
_cell_length_c   7.32140445
_cell_angle_alpha   106.55457972
_cell_angle_beta   106.55458183
_cell_angle_gamma   89.96751280
_symmetry_Int_Tables_number   1
_chemical_formula_structural   Ba2SeO4
_chemical_formula_sum   'Ba2 Se1 O4'
_cell_volume   116.51634758
_cell_formula_units_Z   1
loop_
 _symmetry_equiv_pos_site_id
 _symmetry_equiv_pos_as_xyz
  1  'x, y, z'
loop_
 _atom_site_type_symbol
 _atom_site_label
 _atom_site_symmetry_multiplicity
 _atom_site_fract_x
 _atom_site_fract_y
 _atom_site_fract_z
 _atom_site_occupancy
  Ba  Ba0  1  0.64366537  0.64366521  0.28733415  1.0
  Ba  Ba1  1  0.35633469  0.35633477  0.71266586  1.0
  Se  Se2  1  0.00000002  0.99999993  0.99999997  1.0
  O  O3  1  0.84543790  0.84543796  0.69087313  1.0
  O  O4  1  0.15456211  0.15456208  0.30912689  1.0
  O  O5  1  0.00000000  0.50000008  0.00000000  1.0
  O  O6  1  0.49999992  0.99999997  0.00000000  1.0
