# generated using pymatgen
data_Ba2ScNbO6
_symmetry_space_group_name_H-M   'P 1'
_cell_length_a   5.89159855
_cell_length_b   5.89159847
_cell_length_c   5.89159901
_cell_angle_alpha   59.96475546
_cell_angle_beta   59.96476172
_cell_angle_gamma   59.96476120
_symmetry_Int_Tables_number   1
_chemical_formula_structural   Ba2ScNbO6
_chemical_formula_sum   'Ba2 Sc1 Nb1 O6'
_cell_volume   144.48982232
_cell_formula_units_Z   1
loop_
 _symmetry_equiv_pos_site_id
 _symmetry_equiv_pos_as_xyz
  1  'x, y, z'
loop_
 _atom_site_type_symbol
 _atom_site_label
 _atom_site_symmetry_multiplicity
 _atom_site_fract_x
 _atom_site_fract_y
 _atom_site_fract_z
 _atom_site_occupancy
  Ba  Ba0  1  0.74974334  0.74974318  0.74974336  1.0
  Ba  Ba1  1  0.25025706  0.25025695  0.25025711  1.0
  Sc  Sc2  1  0.00000050  0.99999992  0.00000016  1.0
  Nb  Nb3  1  0.49999966  0.49999981  0.49999982  1.0
  O  O4  1  0.26263670  0.74363225  0.24968484  1.0
  O  O5  1  0.24968446  0.26263712  0.74363212  1.0
  O  O6  1  0.74363171  0.24968474  0.26263680  1.0
  O  O7  1  0.73736342  0.25636759  0.75031508  1.0
  O  O8  1  0.25636782  0.75031517  0.73736329  1.0
  O  O9  1  0.75031533  0.73736326  0.25636741  1.0
