# generated using pymatgen
data_Ba2SiSe4
_symmetry_space_group_name_H-M   'P 1'
_cell_length_a   7.13136552
_cell_length_b   9.38107113
_cell_length_c   13.06469298
_cell_angle_alpha   89.99999432
_cell_angle_beta   90.00001023
_cell_angle_gamma   90.00000237
_symmetry_Int_Tables_number   1
_chemical_formula_structural   Ba2SiSe4
_chemical_formula_sum   'Ba8 Si4 Se16'
_cell_volume   874.02596404
_cell_formula_units_Z   4
loop_
 _symmetry_equiv_pos_site_id
 _symmetry_equiv_pos_as_xyz
  1  'x, y, z'
loop_
 _atom_site_type_symbol
 _atom_site_label
 _atom_site_symmetry_multiplicity
 _atom_site_fract_x
 _atom_site_fract_y
 _atom_site_fract_z
 _atom_site_occupancy
  Ba  Ba0  1  0.25000020  0.98125341  0.33747568  1.0
  Ba  Ba1  1  0.74999985  0.01874649  0.66252427  1.0
  Ba  Ba2  1  0.24999998  0.48125359  0.16252437  1.0
  Ba  Ba3  1  0.75000002  0.51874647  0.83747577  1.0
  Ba  Ba4  1  0.24999996  0.62260774  0.57668529  1.0
  Ba  Ba5  1  0.75000002  0.37739227  0.42331468  1.0
  Ba  Ba6  1  0.24999985  0.12260775  0.92331485  1.0
  Ba  Ba7  1  0.75000020  0.87739238  0.07668506  1.0
  Si  Si8  1  0.24999999  0.73046340  0.92477488  1.0
  Si  Si9  1  0.24999999  0.23046341  0.57522510  1.0
  Si  Si10  1  0.75000000  0.76953657  0.42477491  1.0
  Si  Si11  1  0.75000000  0.26953661  0.07522512  1.0
  Se  Se12  1  0.51245322  0.32648894  0.64587517  1.0
  Se  Se13  1  0.01245328  0.67351105  0.35412481  1.0
  Se  Se14  1  0.98754683  0.82648890  0.85412473  1.0
  Se  Se15  1  0.48754672  0.17351109  0.14587521  1.0
  Se  Se16  1  0.51245323  0.82648896  0.85412475  1.0
  Se  Se17  1  0.48754674  0.67351104  0.35412484  1.0
  Se  Se18  1  0.01245322  0.17351113  0.14587522  1.0
  Se  Se19  1  0.98754668  0.32648894  0.64587516  1.0
  Se  Se20  1  0.74999995  0.51071100  0.09623362  1.0
  Se  Se21  1  0.25000005  0.48928901  0.90376649  1.0
  Se  Se22  1  0.74999999  0.01071092  0.40376639  1.0
  Se  Se23  1  0.25000001  0.98928902  0.59623359  1.0
  Se  Se24  1  0.75000001  0.18800340  0.90955568  1.0
  Se  Se25  1  0.25000000  0.81199657  0.09044434  1.0
  Se  Se26  1  0.75000004  0.68800340  0.59044438  1.0
  Se  Se27  1  0.24999999  0.31199654  0.40955562  1.0
