# generated using pymatgen
data_Ba2SmNbO6
_symmetry_space_group_name_H-M   'P 1'
_cell_length_a   6.10101254
_cell_length_b   6.12393362
_cell_length_c   10.55111810
_cell_angle_alpha   54.74580922
_cell_angle_beta   89.99999048
_cell_angle_gamma   89.99998365
_symmetry_Int_Tables_number   1
_chemical_formula_structural   Ba2SmNbO6
_chemical_formula_sum   'Ba4 Sm2 Nb2 O12'
_cell_volume   321.91402657
_cell_formula_units_Z   2
loop_
 _symmetry_equiv_pos_site_id
 _symmetry_equiv_pos_as_xyz
  1  'x, y, z'
loop_
 _atom_site_type_symbol
 _atom_site_label
 _atom_site_symmetry_multiplicity
 _atom_site_fract_x
 _atom_site_fract_y
 _atom_site_fract_z
 _atom_site_occupancy
  Ba  Ba0  1  0.50968431  0.75417971  0.74931255  1.0
  Ba  Ba1  1  0.99031620  0.75417954  0.24931245  1.0
  Ba  Ba2  1  0.00968396  0.24582001  0.75068782  1.0
  Ba  Ba3  1  0.49031632  0.24582019  0.25068770  1.0
  Sm  Sm4  1  0.50000029  0.49999995  0.50000009  1.0
  Sm  Sm5  1  0.99999997  0.49999994  0.00000009  1.0
  Nb  Nb6  1  0.50000001  0.00000028  0.99999970  1.0
  Nb  Nb7  1  0.99999889  0.00000043  0.49999967  1.0
  O  O8  1  0.99404595  0.71349448  0.73268813  1.0
  O  O9  1  0.49404563  0.28650566  0.76731186  1.0
  O  O10  1  0.00595435  0.28650555  0.26731182  1.0
  O  O11  1  0.50595415  0.71349438  0.23268823  1.0
  O  O12  1  0.78025267  0.21903028  0.52798430  1.0
  O  O13  1  0.28025241  0.78096996  0.97201549  1.0
  O  O14  1  0.21974753  0.78096976  0.47201571  1.0
  O  O15  1  0.71974736  0.21903021  0.02798440  1.0
  O  O16  1  0.25076485  0.18866184  0.02874915  1.0
  O  O17  1  0.75076521  0.81133826  0.47125068  1.0
  O  O18  1  0.74923484  0.81133797  0.97125089  1.0
  O  O19  1  0.24923510  0.18866162  0.52874932  1.0
