# generated using pymatgen
data_Ba2ScNbO6
_symmetry_space_group_name_H-M   'P 1'
_cell_length_a   5.89354794
_cell_length_b   5.89354846
_cell_length_c   5.89355077
_cell_angle_alpha   119.99456701
_cell_angle_beta   119.99455463
_cell_angle_gamma   90.00939970
_symmetry_Int_Tables_number   1
_chemical_formula_structural   Ba2ScNbO6
_chemical_formula_sum   'Ba2 Sc1 Nb1 O6'
_cell_volume   144.76097153
_cell_formula_units_Z   1
loop_
 _symmetry_equiv_pos_site_id
 _symmetry_equiv_pos_as_xyz
  1  'x, y, z'
loop_
 _atom_site_type_symbol
 _atom_site_label
 _atom_site_symmetry_multiplicity
 _atom_site_fract_x
 _atom_site_fract_y
 _atom_site_fract_z
 _atom_site_occupancy
  Ba  Ba0  1  0.24999998  0.75000047  0.50000040  1.0
  Ba  Ba1  1  0.75000006  0.24999984  0.50000019  1.0
  Sc  Sc2  1  0.99999991  0.00000022  0.00000010  1.0
  Nb  Nb3  1  0.49999998  0.50000003  0.00000005  1.0
  O  O4  1  0.73889158  0.74838811  0.48727777  1.0
  O  O5  1  0.74838656  0.26110856  0.00949569  1.0
  O  O6  1  0.25161239  0.73889037  0.99050205  1.0
  O  O7  1  0.26110848  0.25161167  0.51272203  1.0
  O  O8  1  0.25618181  0.25618230  0.00000225  1.0
  O  O9  1  0.74381925  0.74381843  0.99999949  1.0
