# generated using pymatgen
data_Ba2ScNbO6
_symmetry_space_group_name_H-M   'P 1'
_cell_length_a   5.89306224
_cell_length_b   5.89306215
_cell_length_c   5.89306124
_cell_angle_alpha   59.99999544
_cell_angle_beta   59.99997342
_cell_angle_gamma   59.99998274
_symmetry_Int_Tables_number   1
_chemical_formula_structural   Ba2ScNbO6
_chemical_formula_sum   'Ba2 Sc1 Nb1 O6'
_cell_volume   144.71309996
_cell_formula_units_Z   1
loop_
 _symmetry_equiv_pos_site_id
 _symmetry_equiv_pos_as_xyz
  1  'x, y, z'
loop_
 _atom_site_type_symbol
 _atom_site_label
 _atom_site_symmetry_multiplicity
 _atom_site_fract_x
 _atom_site_fract_y
 _atom_site_fract_z
 _atom_site_occupancy
  Ba  Ba0  1  0.25000003  0.25000006  0.24999995  1.0
  Ba  Ba1  1  0.74999991  0.74999991  0.75000006  1.0
  Sc  Sc2  1  0.50000003  0.50000007  0.49999996  1.0
  Nb  Nb3  1  0.00000006  0.99999995  0.99999996  1.0
  O  O4  1  0.75620057  0.24379951  0.24379955  1.0
  O  O5  1  0.24379942  0.75620060  0.75620046  1.0
  O  O6  1  0.24379947  0.75620048  0.24379956  1.0
  O  O7  1  0.75620052  0.24379945  0.75620045  1.0
  O  O8  1  0.24379954  0.24379946  0.75620055  1.0
  O  O9  1  0.75620043  0.75620051  0.24379949  1.0
