# generated using pymatgen
data_Ba2SmNbO6
_symmetry_space_group_name_H-M   'P 1'
_cell_length_a   6.08807323
_cell_length_b   6.08807103
_cell_length_c   6.14203214
_cell_angle_alpha   59.94779480
_cell_angle_beta   59.94779090
_cell_angle_gamma   60.03994662
_symmetry_Int_Tables_number   1
_chemical_formula_structural   Ba2SmNbO6
_chemical_formula_sum   'Ba2 Sm1 Nb1 O6'
_cell_volume   160.89562705
_cell_formula_units_Z   1
loop_
 _symmetry_equiv_pos_site_id
 _symmetry_equiv_pos_as_xyz
  1  'x, y, z'
loop_
 _atom_site_type_symbol
 _atom_site_label
 _atom_site_symmetry_multiplicity
 _atom_site_fract_x
 _atom_site_fract_y
 _atom_site_fract_z
 _atom_site_occupancy
  Ba  Ba0  1  0.24921640  0.24921618  0.25485558  1.0
  Ba  Ba1  1  0.75078387  0.75078368  0.74514441  1.0
  Sm  Sm2  1  0.99999986  0.00000008  0.00000015  1.0
  Nb  Nb3  1  0.49999996  0.50000006  0.50000001  1.0
  O  O4  1  0.29597915  0.76530197  0.70138055  1.0
  O  O5  1  0.23469806  0.70402088  0.29861955  1.0
  O  O6  1  0.70402105  0.23469784  0.29861934  1.0
  O  O7  1  0.76530178  0.29597909  0.70138050  1.0
  O  O8  1  0.73274477  0.73274506  0.21010672  1.0
  O  O9  1  0.26725510  0.26725518  0.78989318  1.0
