# generated using pymatgen
data_Ba2SmNbO6
_symmetry_space_group_name_H-M   'P 1'
_cell_length_a   6.11536128
_cell_length_b   6.11536563
_cell_length_c   6.11534712
_cell_angle_alpha   120.33632137
_cell_angle_beta   120.33628620
_cell_angle_gamma   89.41849406
_symmetry_Int_Tables_number   1
_chemical_formula_structural   Ba2SmNbO6
_chemical_formula_sum   'Ba2 Sm1 Nb1 O6'
_cell_volume   160.88410370
_cell_formula_units_Z   1
loop_
 _symmetry_equiv_pos_site_id
 _symmetry_equiv_pos_as_xyz
  1  'x, y, z'
loop_
 _atom_site_type_symbol
 _atom_site_label
 _atom_site_symmetry_multiplicity
 _atom_site_fract_x
 _atom_site_fract_y
 _atom_site_fract_z
 _atom_site_occupancy
  Ba  Ba0  1  0.24999979  0.75000034  0.49999973  1.0
  Ba  Ba1  1  0.75000005  0.24999964  0.50000017  1.0
  Sm  Sm2  1  0.00000004  0.99999993  0.00000003  1.0
  Nb  Nb3  1  0.50000001  0.49999998  0.00000000  1.0
  O  O4  1  0.69253037  0.77307783  0.46560881  1.0
  O  O5  1  0.77307737  0.30747031  0.08054831  1.0
  O  O6  1  0.22692269  0.69252979  0.91945189  1.0
  O  O7  1  0.30746966  0.22692213  0.53439106  1.0
  O  O8  1  0.26595991  0.26596021  0.00000188  1.0
  O  O9  1  0.73404010  0.73403983  0.99999812  1.0
