# generated using pymatgen
data_Ba2SmNbO6
_symmetry_space_group_name_H-M   'P 1'
_cell_length_a   6.08486729
_cell_length_b   6.08486726
_cell_length_c   6.08486672
_cell_angle_alpha   60.40082654
_cell_angle_beta   60.40082884
_cell_angle_gamma   60.40082126
_symmetry_Int_Tables_number   1
_chemical_formula_structural   Ba2SmNbO6
_chemical_formula_sum   'Ba2 Sm1 Nb1 O6'
_cell_volume   160.75230285
_cell_formula_units_Z   1
loop_
 _symmetry_equiv_pos_site_id
 _symmetry_equiv_pos_as_xyz
  1  'x, y, z'
loop_
 _atom_site_type_symbol
 _atom_site_label
 _atom_site_symmetry_multiplicity
 _atom_site_fract_x
 _atom_site_fract_y
 _atom_site_fract_z
 _atom_site_occupancy
  Ba  Ba0  1  0.74850073  0.74850074  0.74850070  1.0
  Ba  Ba1  1  0.25149926  0.25149932  0.25149927  1.0
  Sm  Sm2  1  0.00000000  0.00000024  0.99999993  1.0
  Nb  Nb3  1  0.49999971  0.49999936  0.50000039  1.0
  O  O4  1  0.31415365  0.73039037  0.21956549  1.0
  O  O5  1  0.21956563  0.31415359  0.73039003  1.0
  O  O6  1  0.73039031  0.21956584  0.31415334  1.0
  O  O7  1  0.68584639  0.26960975  0.78043447  1.0
  O  O8  1  0.26960980  0.78043433  0.68584651  1.0
  O  O9  1  0.78043451  0.68584646  0.26960986  1.0
