# generated using pymatgen
data_Ba2SiO4
_symmetry_space_group_name_H-M   'P 1'
_cell_length_a   3.94906046
_cell_length_b   3.94906070
_cell_length_c   7.10837046
_cell_angle_alpha   106.12810750
_cell_angle_beta   106.12810380
_cell_angle_gamma   90.00009077
_symmetry_Int_Tables_number   1
_chemical_formula_structural   Ba2SiO4
_chemical_formula_sum   'Ba2 Si1 O4'
_cell_volume   101.94314716
_cell_formula_units_Z   1
loop_
 _symmetry_equiv_pos_site_id
 _symmetry_equiv_pos_as_xyz
  1  'x, y, z'
loop_
 _atom_site_type_symbol
 _atom_site_label
 _atom_site_symmetry_multiplicity
 _atom_site_fract_x
 _atom_site_fract_y
 _atom_site_fract_z
 _atom_site_occupancy
  Ba  Ba0  1  0.64267026  0.64267016  0.28533996  1.0
  Ba  Ba1  1  0.35732969  0.35732985  0.71466002  1.0
  Si  Si2  1  0.00000005  0.00000000  0.00000000  1.0
  O  O3  1  0.86561412  0.86561408  0.73124837  1.0
  O  O4  1  0.13438588  0.13438596  0.26875165  1.0
  O  O5  1  0.00000002  0.50000001  0.00000003  1.0
  O  O6  1  0.49999998  0.99999995  0.99999998  1.0
