# generated using pymatgen
data_Ba2TaInO6
_symmetry_space_group_name_H-M   'P 1'
_cell_length_a   5.93951116
_cell_length_b   5.93951181
_cell_length_c   5.93951163
_cell_angle_alpha   59.99998952
_cell_angle_beta   59.99998691
_cell_angle_gamma   59.99998076
_symmetry_Int_Tables_number   1
_chemical_formula_structural   Ba2TaInO6
_chemical_formula_sum   'Ba2 Ta1 In1 O6'
_cell_volume   148.16207498
_cell_formula_units_Z   1
loop_
 _symmetry_equiv_pos_site_id
 _symmetry_equiv_pos_as_xyz
  1  'x, y, z'
loop_
 _atom_site_type_symbol
 _atom_site_label
 _atom_site_symmetry_multiplicity
 _atom_site_fract_x
 _atom_site_fract_y
 _atom_site_fract_z
 _atom_site_occupancy
  Ba  Ba0  1  0.24999995  0.25000001  0.25000008  1.0
  Ba  Ba1  1  0.75000001  0.74999997  0.75000002  1.0
  Ta  Ta2  1  0.99999998  0.99999997  0.00000005  1.0
  In  In3  1  0.50000002  0.50000000  0.49999996  1.0
  O  O4  1  0.76088638  0.23911368  0.23911369  1.0
  O  O5  1  0.23911365  0.76088628  0.76088630  1.0
  O  O6  1  0.23911371  0.76088638  0.23911365  1.0
  O  O7  1  0.76088627  0.23911364  0.76088631  1.0
  O  O8  1  0.23911371  0.23911370  0.76088632  1.0
  O  O9  1  0.76088632  0.76088636  0.23911362  1.0
