# generated using pymatgen
data_Ba2TbNbO6
_symmetry_space_group_name_H-M   'P 1'
_cell_length_a   6.04984731
_cell_length_b   6.07090560
_cell_length_c   10.47647189
_cell_angle_alpha   54.71204472
_cell_angle_beta   90.00000572
_cell_angle_gamma   90.00000729
_symmetry_Int_Tables_number   1
_chemical_formula_structural   Ba2TbNbO6
_chemical_formula_sum   'Ba4 Tb2 Nb2 O12'
_cell_volume   314.08048630
_cell_formula_units_Z   2
loop_
 _symmetry_equiv_pos_site_id
 _symmetry_equiv_pos_as_xyz
  1  'x, y, z'
loop_
 _atom_site_type_symbol
 _atom_site_label
 _atom_site_symmetry_multiplicity
 _atom_site_fract_x
 _atom_site_fract_y
 _atom_site_fract_z
 _atom_site_occupancy
  Ba  Ba0  1  0.50518106  0.75242305  0.74954613  1.0
  Ba  Ba1  1  0.99481868  0.75242289  0.24954603  1.0
  Ba  Ba2  1  0.00518113  0.24757693  0.75045397  1.0
  Ba  Ba3  1  0.49481864  0.24757686  0.25045385  1.0
  Tb  Tb4  1  0.49999989  0.50000006  0.50000003  1.0
  Tb  Tb5  1  0.99999994  0.50000013  0.00000000  1.0
  Nb  Nb6  1  0.50000000  0.00000012  0.00000001  1.0
  Nb  Nb7  1  0.99999994  0.00000002  0.49999999  1.0
  O  O8  1  0.99653295  0.72285813  0.73554731  1.0
  O  O9  1  0.49653291  0.27714182  0.76445268  1.0
  O  O10  1  0.00346726  0.27714185  0.26445265  1.0
  O  O11  1  0.50346714  0.72285813  0.23554736  1.0
  O  O12  1  0.77421809  0.22480190  0.52144743  1.0
  O  O13  1  0.27421816  0.77519816  0.97855269  1.0
  O  O14  1  0.22578198  0.77519804  0.47855256  1.0
  O  O15  1  0.72578193  0.22480187  0.02144736  1.0
  O  O16  1  0.25245929  0.20262736  0.02168374  1.0
  O  O17  1  0.75245961  0.79737238  0.47831636  1.0
  O  O18  1  0.74754076  0.79737282  0.97831623  1.0
  O  O19  1  0.24754066  0.20262747  0.52168363  1.0
