# generated using pymatgen
data_Ba2TiS4
_symmetry_space_group_name_H-M   'P 1'
_cell_length_a   6.91529158
_cell_length_b   9.13021973
_cell_length_c   12.60181089
_cell_angle_alpha   90.00005231
_cell_angle_beta   90.00000160
_cell_angle_gamma   90.00000114
_symmetry_Int_Tables_number   1
_chemical_formula_structural   Ba2TiS4
_chemical_formula_sum   'Ba8 Ti4 S16'
_cell_volume   795.65479465
_cell_formula_units_Z   4
loop_
 _symmetry_equiv_pos_site_id
 _symmetry_equiv_pos_as_xyz
  1  'x, y, z'
loop_
 _atom_site_type_symbol
 _atom_site_label
 _atom_site_symmetry_multiplicity
 _atom_site_fract_x
 _atom_site_fract_y
 _atom_site_fract_z
 _atom_site_occupancy
  Ba  Ba0  1  0.25000003  0.97636453  0.32555753  1.0
  Ba  Ba1  1  0.74999996  0.02363525  0.67444273  1.0
  Ba  Ba2  1  0.25000003  0.47636406  0.17444337  1.0
  Ba  Ba3  1  0.74999998  0.52363566  0.82555672  1.0
  Ba  Ba4  1  0.25000000  0.63177873  0.57469364  1.0
  Ba  Ba5  1  0.74999994  0.36822185  0.42530591  1.0
  Ba  Ba6  1  0.25000009  0.13177699  0.92530586  1.0
  Ba  Ba7  1  0.74999995  0.86822284  0.07469382  1.0
  Ti  Ti8  1  0.24999998  0.72696969  0.92669760  1.0
  Ti  Ti9  1  0.24999999  0.22697348  0.57330069  1.0
  Ti  Ti10  1  0.75000000  0.77302485  0.42669715  1.0
  Ti  Ti11  1  0.75000002  0.27302805  0.07330129  1.0
  S  S12  1  0.50807762  0.33147676  0.64973560  1.0
  S  S13  1  0.00807322  0.66852473  0.35026598  1.0
  S  S14  1  0.99192977  0.83147352  0.85026680  1.0
  S  S15  1  0.49192788  0.16852590  0.14973388  1.0
  S  S16  1  0.50807021  0.83147353  0.85026681  1.0
  S  S17  1  0.49192682  0.66852475  0.35026597  1.0
  S  S18  1  0.00807214  0.16852589  0.14973390  1.0
  S  S19  1  0.99192234  0.33147676  0.64973558  1.0
  S  S20  1  0.74999999  0.51943229  0.08817316  1.0
  S  S21  1  0.25000002  0.48056932  0.91182657  1.0
  S  S22  1  0.75000002  0.01943538  0.41182571  1.0
  S  S23  1  0.24999999  0.98056500  0.58817387  1.0
  S  S24  1  0.74999998  0.19211515  0.90344538  1.0
  S  S25  1  0.25000003  0.80788545  0.09655493  1.0
  S  S26  1  0.75000004  0.69211331  0.59655650  1.0
  S  S27  1  0.24999998  0.30788627  0.40344306  1.0
