# generated using pymatgen
data_Ba2TaAlO6
_symmetry_space_group_name_H-M   'P 1'
_cell_length_a   5.69148218
_cell_length_b   5.69148284
_cell_length_c   5.69148262
_cell_angle_alpha   59.99999224
_cell_angle_beta   59.99999884
_cell_angle_gamma   59.99999189
_symmetry_Int_Tables_number   1
_chemical_formula_structural   Ba2TaAlO6
_chemical_formula_sum   'Ba2 Ta1 Al1 O6'
_cell_volume   130.36504877
_cell_formula_units_Z   1
loop_
 _symmetry_equiv_pos_site_id
 _symmetry_equiv_pos_as_xyz
  1  'x, y, z'
loop_
 _atom_site_type_symbol
 _atom_site_label
 _atom_site_symmetry_multiplicity
 _atom_site_fract_x
 _atom_site_fract_y
 _atom_site_fract_z
 _atom_site_occupancy
  Ba  Ba0  1  0.24999997  0.24999999  0.25000006  1.0
  Ba  Ba1  1  0.74999999  0.75000004  0.74999997  1.0
  Ta  Ta2  1  0.00000002  0.99999998  0.00000001  1.0
  Al  Al3  1  0.50000000  0.50000000  0.50000000  1.0
  O  O4  1  0.74801800  0.25198205  0.25198202  1.0
  O  O5  1  0.25198205  0.74801793  0.74801796  1.0
  O  O6  1  0.25198207  0.74801793  0.25198208  1.0
  O  O7  1  0.74801792  0.25198206  0.74801792  1.0
  O  O8  1  0.25198205  0.25198203  0.74801800  1.0
  O  O9  1  0.74801792  0.74801799  0.25198199  1.0
