# generated using pymatgen
data_Ba2TbNbO6
_symmetry_space_group_name_H-M   'P 1'
_cell_length_a   6.05041033
_cell_length_b   6.05041110
_cell_length_c   6.07521049
_cell_angle_alpha   59.91092187
_cell_angle_beta   59.91092326
_cell_angle_gamma   60.02063180
_symmetry_Int_Tables_number   1
_chemical_formula_structural   Ba2TbNbO6
_chemical_formula_sum   'Ba2 Tb1 Nb1 O6'
_cell_volume   157.07153321
_cell_formula_units_Z   1
loop_
 _symmetry_equiv_pos_site_id
 _symmetry_equiv_pos_as_xyz
  1  'x, y, z'
loop_
 _atom_site_type_symbol
 _atom_site_label
 _atom_site_symmetry_multiplicity
 _atom_site_fract_x
 _atom_site_fract_y
 _atom_site_fract_z
 _atom_site_occupancy
  Ba  Ba0  1  0.25010077  0.25010067  0.25137431  1.0
  Ba  Ba1  1  0.74989895  0.74989950  0.74862545  1.0
  Tb  Tb2  1  0.99999999  0.00000016  0.99999989  1.0
  Nb  Nb3  1  0.49999990  0.50000019  0.49999982  1.0
  O  O4  1  0.28688688  0.75984529  0.71193792  1.0
  O  O5  1  0.24015460  0.71311281  0.28806219  1.0
  O  O6  1  0.71311313  0.24015434  0.28806244  1.0
  O  O7  1  0.75984558  0.28688721  0.71193777  1.0
  O  O8  1  0.73567497  0.73567503  0.21915617  1.0
  O  O9  1  0.26432524  0.26432479  0.78084404  1.0
