# generated using pymatgen
data_Ba2TaCoO6
_symmetry_space_group_name_H-M   'P 1'
_cell_length_a   5.76161499
_cell_length_b   5.76184773
_cell_length_c   5.76170941
_cell_angle_alpha   60.31539154
_cell_angle_beta   60.31787029
_cell_angle_gamma   60.31679319
_symmetry_Int_Tables_number   1
_chemical_formula_structural   Ba2TaCoO6
_chemical_formula_sum   'Ba2 Ta1 Co1 O6'
_cell_volume   136.22073910
_cell_formula_units_Z   1
loop_
 _symmetry_equiv_pos_site_id
 _symmetry_equiv_pos_as_xyz
  1  'x, y, z'
loop_
 _atom_site_type_symbol
 _atom_site_label
 _atom_site_symmetry_multiplicity
 _atom_site_fract_x
 _atom_site_fract_y
 _atom_site_fract_z
 _atom_site_occupancy
  Ba  Ba0  1  0.25025093  0.25025366  0.25025131  1.0
  Ba  Ba1  1  0.74974906  0.74974634  0.74974867  1.0
  Ta  Ta2  1  0.00000001  0.00000000  0.99999999  1.0
  Co  Co3  1  0.50000001  0.49999999  0.50000000  1.0
  O  O4  1  0.75386768  0.24682066  0.24682251  1.0
  O  O5  1  0.24613231  0.75317935  0.75317750  1.0
  O  O6  1  0.24684283  0.75384939  0.24684102  1.0
  O  O7  1  0.75315718  0.24615062  0.75315898  1.0
  O  O8  1  0.24683311  0.24682936  0.75385808  1.0
  O  O9  1  0.75316687  0.75317063  0.24614194  1.0
