# generated using pymatgen
data_Ba2TaMnO6
_symmetry_space_group_name_H-M   'P 1'
_cell_length_a   5.81303430
_cell_length_b   5.81303083
_cell_length_c   5.81303195
_cell_angle_alpha   60.00000562
_cell_angle_beta   59.99997711
_cell_angle_gamma   60.00000129
_symmetry_Int_Tables_number   1
_chemical_formula_structural   Ba2TaMnO6
_chemical_formula_sum   'Ba2 Ta1 Mn1 O6'
_cell_volume   138.89709783
_cell_formula_units_Z   1
loop_
 _symmetry_equiv_pos_site_id
 _symmetry_equiv_pos_as_xyz
  1  'x, y, z'
loop_
 _atom_site_type_symbol
 _atom_site_label
 _atom_site_symmetry_multiplicity
 _atom_site_fract_x
 _atom_site_fract_y
 _atom_site_fract_z
 _atom_site_occupancy
  Ba  Ba0  1  0.25000026  0.25000004  0.24999992  1.0
  Ba  Ba1  1  0.74999974  0.74999997  0.75000009  1.0
  Ta  Ta2  1  0.99999998  0.00000001  0.99999999  1.0
  Mn  Mn3  1  0.49999996  0.49999999  0.50000001  1.0
  O  O4  1  0.75532570  0.24467468  0.24467497  1.0
  O  O5  1  0.24467428  0.75532538  0.75532498  1.0
  O  O6  1  0.24467459  0.75532548  0.24467522  1.0
  O  O7  1  0.75532542  0.24467455  0.75532478  1.0
  O  O8  1  0.24467467  0.24467487  0.75532520  1.0
  O  O9  1  0.75532538  0.75532505  0.24467484  1.0
