# generated using pymatgen
data_Ba2TiO4
_symmetry_space_group_name_H-M   'P 1'
_cell_length_a   5.83898957
_cell_length_b   7.83549542
_cell_length_c   12.78831022
_cell_angle_alpha   90.00000194
_cell_angle_beta   89.99999977
_cell_angle_gamma   89.99999990
_symmetry_Int_Tables_number   1
_chemical_formula_structural   Ba2TiO4
_chemical_formula_sum   'Ba8 Ti4 O16'
_cell_volume   585.08278970
_cell_formula_units_Z   4
loop_
 _symmetry_equiv_pos_site_id
 _symmetry_equiv_pos_as_xyz
  1  'x, y, z'
loop_
 _atom_site_type_symbol
 _atom_site_label
 _atom_site_symmetry_multiplicity
 _atom_site_fract_x
 _atom_site_fract_y
 _atom_site_fract_z
 _atom_site_occupancy
  Ba  Ba0  1  0.00000000  0.00000000  0.00000000  1.0
  Ba  Ba1  1  0.00000000  0.50000000  0.00000000  1.0
  Ba  Ba2  1  0.99021278  0.25000000  0.71686960  1.0
  Ba  Ba3  1  0.50978725  0.25000000  0.21686956  1.0
  Ba  Ba4  1  0.50000000  0.00000000  0.50000000  1.0
  Ba  Ba5  1  0.50000000  0.50000000  0.50000000  1.0
  Ba  Ba6  1  0.49021275  0.75000000  0.78313043  1.0
  Ba  Ba7  1  0.00978722  0.75000000  0.28313040  1.0
  Ti  Ti8  1  0.93485507  0.75000001  0.59931856  1.0
  Ti  Ti9  1  0.56514490  0.75000000  0.09931851  1.0
  Ti  Ti10  1  0.43485511  0.24999999  0.90068149  1.0
  Ti  Ti11  1  0.06514492  0.24999999  0.40068144  1.0
  O  O12  1  0.80272560  0.75000002  0.46802127  1.0
  O  O13  1  0.80146286  0.93535731  0.66299393  1.0
  O  O14  1  0.80146285  0.56464268  0.66299388  1.0
  O  O15  1  0.75239237  0.25000000  0.90528985  1.0
  O  O16  1  0.74760763  0.24999999  0.40528979  1.0
  O  O17  1  0.69853714  0.93535731  0.16299387  1.0
  O  O18  1  0.69853715  0.56464268  0.16299382  1.0
  O  O19  1  0.69727442  0.75000002  0.96802123  1.0
  O  O20  1  0.30272558  0.24999998  0.03197877  1.0
  O  O21  1  0.30146285  0.43535732  0.83700618  1.0
  O  O22  1  0.30146285  0.06464270  0.83700613  1.0
  O  O23  1  0.25239238  0.75000000  0.59471022  1.0
  O  O24  1  0.24760763  0.75000001  0.09471014  1.0
  O  O25  1  0.19853714  0.43535732  0.33700612  1.0
  O  O26  1  0.19853714  0.06464269  0.33700607  1.0
  O  O27  1  0.19727441  0.24999998  0.53197873  1.0
