# generated using pymatgen
data_Ba2TeOF6
_symmetry_space_group_name_H-M   'P 1'
_cell_length_a   7.73176160
_cell_length_b   7.73159058
_cell_length_c   7.68727010
_cell_angle_alpha   62.07812252
_cell_angle_beta   62.07708143
_cell_angle_gamma   74.72565731
_symmetry_Int_Tables_number   1
_chemical_formula_structural   Ba2TeOF6
_chemical_formula_sum   'Ba4 Te2 O2 F12'
_cell_volume   358.19371082
_cell_formula_units_Z   2
loop_
 _symmetry_equiv_pos_site_id
 _symmetry_equiv_pos_as_xyz
  1  'x, y, z'
loop_
 _atom_site_type_symbol
 _atom_site_label
 _atom_site_symmetry_multiplicity
 _atom_site_fract_x
 _atom_site_fract_y
 _atom_site_fract_z
 _atom_site_occupancy
  Ba  Ba0  1  0.18730506  0.41213872  0.15265558  1.0
  Ba  Ba1  1  0.12684947  0.81955804  0.52596860  1.0
  Ba  Ba2  1  0.81955484  0.12685034  0.02597731  1.0
  Ba  Ba3  1  0.41213501  0.18729627  0.65266305  1.0
  Te  Te4  1  0.63426228  0.67875435  0.11217987  1.0
  Te  Te5  1  0.67873260  0.63430667  0.61218078  1.0
  O  O6  1  0.56523550  0.81334923  0.28326049  1.0
  O  O7  1  0.81336198  0.56522343  0.78327005  1.0
  F  F8  1  0.12787198  0.09481014  0.13042757  1.0
  F  F9  1  0.57967807  0.33654306  0.81158776  1.0
  F  F10  1  0.63940317  0.95709833  0.86747653  1.0
  F  F11  1  0.41660414  0.73483755  0.82568055  1.0
  F  F12  1  0.92648159  0.74250848  0.98164817  1.0
  F  F13  1  0.47923894  0.22567481  0.26600022  1.0
  F  F14  1  0.22568460  0.47924899  0.76599140  1.0
  F  F15  1  0.95710229  0.63940095  0.36746967  1.0
  F  F16  1  0.73484405  0.41658885  0.32568458  1.0
  F  F17  1  0.33654206  0.57967777  0.31158615  1.0
  F  F18  1  0.09480490  0.12787032  0.63043877  1.0
  F  F19  1  0.74250747  0.92646373  0.48165290  1.0
