# generated using pymatgen
data_Ba2VO4
_symmetry_space_group_name_H-M   'P 1'
_cell_length_a   4.09489199
_cell_length_b   4.09526207
_cell_length_c   7.19934857
_cell_angle_alpha   106.52383460
_cell_angle_beta   106.52238787
_cell_angle_gamma   90.00087386
_symmetry_Int_Tables_number   1
_chemical_formula_structural   Ba2VO4
_chemical_formula_sum   'Ba2 V1 O4'
_cell_volume   110.53467770
_cell_formula_units_Z   1
loop_
 _symmetry_equiv_pos_site_id
 _symmetry_equiv_pos_as_xyz
  1  'x, y, z'
loop_
 _atom_site_type_symbol
 _atom_site_label
 _atom_site_symmetry_multiplicity
 _atom_site_fract_x
 _atom_site_fract_y
 _atom_site_fract_z
 _atom_site_occupancy
  Ba  Ba0  1  0.64044507  0.64044618  0.28089218  1.0
  Ba  Ba1  1  0.35955489  0.35955379  0.71910783  1.0
  V  V2  1  0.99999985  0.99999993  0.00000001  1.0
  O  O3  1  0.85445888  0.85445981  0.70893143  1.0
  O  O4  1  0.14554127  0.14554026  0.29106856  1.0
  O  O5  1  0.99999996  0.50000004  0.99999999  1.0
  O  O6  1  0.50000008  0.99999999  0.00000000  1.0
