# generated using pymatgen
data_Ba2YNbO6
_symmetry_space_group_name_H-M   'P 1'
_cell_length_a   6.03477323
_cell_length_b   6.03477339
_cell_length_c   6.05292437
_cell_angle_alpha   59.91877401
_cell_angle_beta   59.91877743
_cell_angle_gamma   60.02330053
_symmetry_Int_Tables_number   1
_chemical_formula_structural   Ba2YNbO6
_chemical_formula_sum   'Ba2 Y1 Nb1 O6'
_cell_volume   155.70914625
_cell_formula_units_Z   1
loop_
 _symmetry_equiv_pos_site_id
 _symmetry_equiv_pos_as_xyz
  1  'x, y, z'
loop_
 _atom_site_type_symbol
 _atom_site_label
 _atom_site_symmetry_multiplicity
 _atom_site_fract_x
 _atom_site_fract_y
 _atom_site_fract_z
 _atom_site_occupancy
  Ba  Ba0  1  0.25024225  0.25024211  0.25063157  1.0
  Ba  Ba1  1  0.74975795  0.74975779  0.74936850  1.0
  Y  Y2  1  0.00000006  0.99999995  0.00000000  1.0
  Nb  Nb3  1  0.49999996  0.50000004  0.49999977  1.0
  O  O4  1  0.28339258  0.75783450  0.71577336  1.0
  O  O5  1  0.24216560  0.71660716  0.28422661  1.0
  O  O6  1  0.71660744  0.24216560  0.28422658  1.0
  O  O7  1  0.75783426  0.28339278  0.71577356  1.0
  O  O8  1  0.73658586  0.73658605  0.22305975  1.0
  O  O9  1  0.26341405  0.26341403  0.77694030  1.0
