# generated using pymatgen
data_Ba2ZrS4
_symmetry_space_group_name_H-M   'P 1'
_cell_length_a   7.17610223
_cell_length_b   9.24007340
_cell_length_c   13.02040887
_cell_angle_alpha   89.99998449
_cell_angle_beta   90.00000001
_cell_angle_gamma   89.99999649
_symmetry_Int_Tables_number   1
_chemical_formula_structural   Ba2ZrS4
_chemical_formula_sum   'Ba8 Zr4 S16'
_cell_volume   863.35351276
_cell_formula_units_Z   4
loop_
 _symmetry_equiv_pos_site_id
 _symmetry_equiv_pos_as_xyz
  1  'x, y, z'
loop_
 _atom_site_type_symbol
 _atom_site_label
 _atom_site_symmetry_multiplicity
 _atom_site_fract_x
 _atom_site_fract_y
 _atom_site_fract_z
 _atom_site_occupancy
  Ba  Ba0  1  0.25000000  0.97493224  0.31833046  1.0
  Ba  Ba1  1  0.74999993  0.02506772  0.68166956  1.0
  Ba  Ba2  1  0.25000016  0.47493218  0.18166953  1.0
  Ba  Ba3  1  0.74999979  0.52506782  0.81833046  1.0
  Ba  Ba4  1  0.24999990  0.62542651  0.56288000  1.0
  Ba  Ba5  1  0.75000015  0.37457351  0.43711997  1.0
  Ba  Ba6  1  0.25000003  0.12542656  0.93711997  1.0
  Ba  Ba7  1  0.75000001  0.87457343  0.06288008  1.0
  Zr  Zr8  1  0.24999988  0.71939677  0.92952601  1.0
  Zr  Zr9  1  0.24999996  0.21939687  0.57047388  1.0
  Zr  Zr10  1  0.74999999  0.78060310  0.42952609  1.0
  Zr  Zr11  1  0.75000001  0.28060321  0.07047398  1.0
  S  S12  1  0.51261835  0.33492811  0.64758650  1.0
  S  S13  1  0.01261832  0.66507199  0.35241339  1.0
  S  S14  1  0.98738149  0.83492806  0.85241353  1.0
  S  S15  1  0.48738177  0.16507194  0.14758653  1.0
  S  S16  1  0.51261831  0.83492817  0.85241347  1.0
  S  S17  1  0.48738171  0.66507188  0.35241347  1.0
  S  S18  1  0.01261833  0.16507195  0.14758647  1.0
  S  S19  1  0.98738175  0.33492809  0.64758659  1.0
  S  S20  1  0.74999987  0.53882588  0.08033676  1.0
  S  S21  1  0.25000023  0.46117397  0.91966322  1.0
  S  S22  1  0.75000009  0.03882588  0.41966308  1.0
  S  S23  1  0.25000008  0.96117416  0.58033688  1.0
  S  S24  1  0.75000008  0.19491625  0.89701857  1.0
  S  S25  1  0.24999976  0.80508378  0.10298155  1.0
  S  S26  1  0.75000009  0.69491634  0.60298122  1.0
  S  S27  1  0.24999995  0.30508363  0.39701878  1.0
