# generated using pymatgen
data_BaRuO4
_symmetry_space_group_name_H-M   'P 1'
_cell_length_a   5.92389669
_cell_length_b   7.63497932
_cell_length_c   9.23804845
_cell_angle_alpha   89.99999945
_cell_angle_beta   89.99999171
_cell_angle_gamma   90.00000008
_symmetry_Int_Tables_number   1
_chemical_formula_structural   BaRuO4
_chemical_formula_sum   'Ba4 Ru4 O16'
_cell_volume   417.82611107
_cell_formula_units_Z   4
loop_
 _symmetry_equiv_pos_site_id
 _symmetry_equiv_pos_as_xyz
  1  'x, y, z'
loop_
 _atom_site_type_symbol
 _atom_site_label
 _atom_site_symmetry_multiplicity
 _atom_site_fract_x
 _atom_site_fract_y
 _atom_site_fract_z
 _atom_site_occupancy
  Ba  Ba0  1  0.25000000  0.34562512  0.68045618  1.0
  Ba  Ba1  1  0.75000000  0.65437488  0.31954382  1.0
  Ba  Ba2  1  0.75000000  0.84562516  0.81954381  1.0
  Ba  Ba3  1  0.25000000  0.15437484  0.18045619  1.0
  Ru  Ru4  1  0.24999999  0.68511531  0.05633939  1.0
  Ru  Ru5  1  0.75000003  0.31488469  0.94366061  1.0
  Ru  Ru6  1  0.75000002  0.18511531  0.44366056  1.0
  Ru  Ru7  1  0.24999998  0.81488469  0.55633944  1.0
  O  O8  1  0.50399173  0.17999008  0.92212103  1.0
  O  O9  1  0.00399173  0.82000993  0.07787914  1.0
  O  O10  1  0.49600827  0.67999007  0.57787896  1.0
  O  O11  1  0.99600826  0.32000992  0.42212087  1.0
  O  O12  1  0.49600827  0.82000992  0.07787897  1.0
  O  O13  1  0.99600826  0.17999008  0.92212086  1.0
  O  O14  1  0.50399173  0.32000993  0.42212104  1.0
  O  O15  1  0.00399173  0.67999007  0.57787913  1.0
  O  O16  1  0.25000001  0.89170436  0.37473681  1.0
  O  O17  1  0.74999999  0.10829564  0.62526318  1.0
  O  O18  1  0.74999999  0.39170432  0.12526324  1.0
  O  O19  1  0.25000001  0.60829567  0.87473675  1.0
  O  O20  1  0.25000000  0.98291086  0.68838327  1.0
  O  O21  1  0.75000000  0.01708914  0.31161674  1.0
  O  O22  1  0.75000000  0.48291088  0.81161681  1.0
  O  O23  1  0.25000000  0.51708911  0.18838320  1.0
