# generated using pymatgen
data_BaSeO4
_symmetry_space_group_name_H-M   'P 1'
_cell_length_a   5.77387448
_cell_length_b   7.50554479
_cell_length_c   9.25863172
_cell_angle_alpha   90.00000144
_cell_angle_beta   89.99999466
_cell_angle_gamma   90.00000000
_symmetry_Int_Tables_number   1
_chemical_formula_structural   BaSeO4
_chemical_formula_sum   'Ba4 Se4 O16'
_cell_volume   401.23274493
_cell_formula_units_Z   4
loop_
 _symmetry_equiv_pos_site_id
 _symmetry_equiv_pos_as_xyz
  1  'x, y, z'
loop_
 _atom_site_type_symbol
 _atom_site_label
 _atom_site_symmetry_multiplicity
 _atom_site_fract_x
 _atom_site_fract_y
 _atom_site_fract_z
 _atom_site_occupancy
  Ba  Ba0  1  0.25000001  0.34387972  0.68546454  1.0
  Ba  Ba1  1  0.75000000  0.65612030  0.31453546  1.0
  Ba  Ba2  1  0.75000000  0.84387975  0.81453546  1.0
  Ba  Ba3  1  0.25000001  0.15612027  0.18546455  1.0
  Se  Se4  1  0.24999999  0.68860420  0.05726074  1.0
  Se  Se5  1  0.75000000  0.31139578  0.94273930  1.0
  Se  Se6  1  0.75000000  0.18860425  0.44273918  1.0
  Se  Se7  1  0.25000000  0.81139576  0.55726078  1.0
  O  O8  1  0.51384933  0.18262124  0.91966183  1.0
  O  O9  1  0.01384934  0.81737873  0.08033824  1.0
  O  O10  1  0.48615068  0.68262120  0.58033824  1.0
  O  O11  1  0.98615067  0.31737880  0.41966169  1.0
  O  O12  1  0.48615066  0.81737874  0.08033816  1.0
  O  O13  1  0.98615067  0.18262125  0.91966174  1.0
  O  O14  1  0.51384933  0.31737881  0.41966177  1.0
  O  O15  1  0.01384932  0.68262121  0.58033832  1.0
  O  O16  1  0.25000000  0.88815911  0.38864219  1.0
  O  O17  1  0.75000000  0.11184089  0.61135784  1.0
  O  O18  1  0.75000000  0.38815914  0.11135786  1.0
  O  O19  1  0.24999999  0.61184083  0.88864209  1.0
  O  O20  1  0.25000000  0.96960485  0.68404903  1.0
  O  O21  1  0.75000000  0.03039518  0.31595100  1.0
  O  O22  1  0.75000000  0.46960487  0.81595100  1.0
  O  O23  1  0.25000000  0.53039512  0.18404897  1.0
