# generated using pymatgen
data_BaSO4
_symmetry_space_group_name_H-M   'P 1'
_cell_length_a   5.53283000
_cell_length_b   7.28442229
_cell_length_c   9.06718316
_cell_angle_alpha   89.99999957
_cell_angle_beta   89.99999914
_cell_angle_gamma   89.99999930
_symmetry_Int_Tables_number   1
_chemical_formula_structural   BaSO4
_chemical_formula_sum   'Ba4 S4 O16'
_cell_volume   365.43894609
_cell_formula_units_Z   4
loop_
 _symmetry_equiv_pos_site_id
 _symmetry_equiv_pos_as_xyz
  1  'x, y, z'
loop_
 _atom_site_type_symbol
 _atom_site_label
 _atom_site_symmetry_multiplicity
 _atom_site_fract_x
 _atom_site_fract_y
 _atom_site_fract_z
 _atom_site_occupancy
  Ba  Ba0  1  0.25000000  0.34390993  0.68756368  1.0
  Ba  Ba1  1  0.74999998  0.65609008  0.31243630  1.0
  Ba  Ba2  1  0.75000002  0.84390995  0.81243632  1.0
  Ba  Ba3  1  0.25000000  0.15609005  0.18756367  1.0
  S  S4  1  0.24999999  0.69364792  0.05803078  1.0
  S  S5  1  0.75000000  0.30635209  0.94196928  1.0
  S  S6  1  0.75000000  0.19364790  0.44196920  1.0
  S  S7  1  0.25000001  0.80635208  0.55803073  1.0
  O  O8  1  0.53003781  0.18774765  0.91955646  1.0
  O  O9  1  0.03003786  0.81225229  0.08044354  1.0
  O  O10  1  0.46996217  0.68774769  0.58044354  1.0
  O  O11  1  0.96996219  0.31225233  0.41955646  1.0
  O  O12  1  0.46996213  0.81225228  0.08044352  1.0
  O  O13  1  0.96996223  0.18774767  0.91955645  1.0
  O  O14  1  0.53003781  0.31225234  0.41955647  1.0
  O  O15  1  0.03003786  0.68774768  0.58044356  1.0
  O  O16  1  0.25000000  0.87813050  0.40541971  1.0
  O  O17  1  0.75000000  0.12186946  0.59458036  1.0
  O  O18  1  0.75000000  0.37813051  0.09458034  1.0
  O  O19  1  0.24999996  0.62186951  0.90541967  1.0
  O  O20  1  0.25000000  0.95450626  0.67103401  1.0
  O  O21  1  0.75000001  0.04549376  0.32896600  1.0
  O  O22  1  0.74999999  0.45450630  0.82896596  1.0
  O  O23  1  0.25000000  0.54549377  0.17103400  1.0
