# generated using pymatgen
data_BaTeO4
_symmetry_space_group_name_H-M   'P 1'
_cell_length_a   6.09280669
_cell_length_b   7.76616034
_cell_length_c   9.31199749
_cell_angle_alpha   89.99999697
_cell_angle_beta   89.99999382
_cell_angle_gamma   90.00000173
_symmetry_Int_Tables_number   1
_chemical_formula_structural   BaTeO4
_chemical_formula_sum   'Ba4 Te4 O16'
_cell_volume   440.62243098
_cell_formula_units_Z   4
loop_
 _symmetry_equiv_pos_site_id
 _symmetry_equiv_pos_as_xyz
  1  'x, y, z'
loop_
 _atom_site_type_symbol
 _atom_site_label
 _atom_site_symmetry_multiplicity
 _atom_site_fract_x
 _atom_site_fract_y
 _atom_site_fract_z
 _atom_site_occupancy
  Ba  Ba0  1  0.24999998  0.33842743  0.68349128  1.0
  Ba  Ba1  1  0.75000001  0.66157257  0.31650871  1.0
  Ba  Ba2  1  0.75000002  0.83842754  0.81650862  1.0
  Ba  Ba3  1  0.24999997  0.16157247  0.18349137  1.0
  Te  Te4  1  0.24999999  0.68252181  0.05312541  1.0
  Te  Te5  1  0.75000000  0.31747818  0.94687458  1.0
  Te  Te6  1  0.75000002  0.18252178  0.44687459  1.0
  Te  Te7  1  0.24999997  0.81747823  0.55312540  1.0
  O  O8  1  0.50057423  0.18429899  0.92562043  1.0
  O  O9  1  0.00057424  0.81570095  0.07437976  1.0
  O  O10  1  0.49942631  0.68429870  0.57437957  1.0
  O  O11  1  0.99942637  0.31570133  0.42562025  1.0
  O  O12  1  0.49942572  0.81570098  0.07437957  1.0
  O  O13  1  0.99942577  0.18429899  0.92562024  1.0
  O  O14  1  0.50057364  0.31570134  0.42562043  1.0
  O  O15  1  0.00057366  0.68429874  0.57437975  1.0
  O  O16  1  0.24999996  0.89891061  0.36749612  1.0
  O  O17  1  0.75000006  0.10108940  0.63250392  1.0
  O  O18  1  0.75000008  0.39891037  0.13250339  1.0
  O  O19  1  0.24999994  0.60108962  0.86749664  1.0
  O  O20  1  0.25000005  0.98533748  0.69237938  1.0
  O  O21  1  0.74999998  0.01466250  0.30762061  1.0
  O  O22  1  0.74999996  0.48533709  0.80762097  1.0
  O  O23  1  0.25000006  0.51466293  0.19237903  1.0
