# generated using pymatgen
data_BaZrS3
_symmetry_space_group_name_H-M   'P 1'
_cell_length_a   5.04328544
_cell_length_b   5.04328519
_cell_length_c   5.04328616
_cell_angle_alpha   89.99997546
_cell_angle_beta   90.00001272
_cell_angle_gamma   89.99997932
_symmetry_Int_Tables_number   1
_chemical_formula_structural   BaZrS3
_chemical_formula_sum   'Ba1 Zr1 S3'
_cell_volume   128.27460549
_cell_formula_units_Z   1
loop_
 _symmetry_equiv_pos_site_id
 _symmetry_equiv_pos_as_xyz
  1  'x, y, z'
loop_
 _atom_site_type_symbol
 _atom_site_label
 _atom_site_symmetry_multiplicity
 _atom_site_fract_x
 _atom_site_fract_y
 _atom_site_fract_z
 _atom_site_occupancy
  Ba  Ba0  1  0.99999995  0.00000024  0.99999990  1.0
  Zr  Zr1  1  0.50000023  0.50000031  0.49999997  1.0
  S  S2  1  0.49999994  0.00000001  0.50000007  1.0
  S  S3  1  0.49999984  0.49999949  0.00000001  1.0
  S  S4  1  0.00000004  0.49999995  0.50000004  1.0
