# generated using pymatgen
data_BiBrO
_symmetry_space_group_name_H-M   'P 1'
_cell_length_a   4.13605195
_cell_length_b   9.31845916
_cell_length_c   4.13602344
_cell_angle_alpha   102.81804137
_cell_angle_beta   120.00027586
_cell_angle_gamma   89.99999274
_symmetry_Int_Tables_number   1
_chemical_formula_structural   BiBrO
_chemical_formula_sum   'Bi2 Br2 O2'
_cell_volume   133.44511650
_cell_formula_units_Z   2
loop_
 _symmetry_equiv_pos_site_id
 _symmetry_equiv_pos_as_xyz
  1  'x, y, z'
loop_
 _atom_site_type_symbol
 _atom_site_label
 _atom_site_symmetry_multiplicity
 _atom_site_fract_x
 _atom_site_fract_y
 _atom_site_fract_z
 _atom_site_occupancy
  Bi  Bi0  1  0.78048559  0.34142434  0.56097161  1.0
  Bi  Bi1  1  0.21951440  0.65857566  0.43902842  1.0
  Br  Br2  1  0.38021101  0.14060473  0.76042178  1.0
  Br  Br3  1  0.61978896  0.85939526  0.23957820  1.0
  O  O4  1  0.13623517  0.40873422  0.27246995  1.0
  O  O5  1  0.86376487  0.59126579  0.72753004  1.0
