# generated using pymatgen
data_BiClO
_symmetry_space_group_name_H-M   'P 1'
_cell_length_a   4.10064573
_cell_length_b   8.95019430
_cell_length_c   4.10061498
_cell_angle_alpha   103.24023445
_cell_angle_beta   120.00027168
_cell_angle_gamma   89.99999107
_symmetry_Int_Tables_number   1
_chemical_formula_structural   BiClO
_chemical_formula_sum   'Bi2 Cl2 O2'
_cell_volume   125.69499848
_cell_formula_units_Z   2
loop_
 _symmetry_equiv_pos_site_id
 _symmetry_equiv_pos_as_xyz
  1  'x, y, z'
loop_
 _atom_site_type_symbol
 _atom_site_label
 _atom_site_symmetry_multiplicity
 _atom_site_fract_x
 _atom_site_fract_y
 _atom_site_fract_z
 _atom_site_occupancy
  Bi  Bi0  1  0.77748228  0.33243953  0.55496479  1.0
  Bi  Bi1  1  0.22251764  0.66756047  0.44503516  1.0
  Cl  Cl2  1  0.38096320  0.14287664  0.76192601  1.0
  Cl  Cl3  1  0.61903685  0.85712337  0.23807401  1.0
  O  O4  1  0.13537607  0.40613486  0.27075191  1.0
  O  O5  1  0.86462396  0.59386514  0.72924812  1.0
