# generated using pymatgen
data_BiIO
_symmetry_space_group_name_H-M   'P 1'
_cell_length_a   4.23533106
_cell_length_b   9.74718674
_cell_length_c   4.23537749
_cell_angle_alpha   102.53913432
_cell_angle_beta   119.99970488
_cell_angle_gamma   89.99999320
_symmetry_Int_Tables_number   1
_chemical_formula_structural   BiIO
_chemical_formula_sum   'Bi2 I2 O2'
_cell_volume   146.58720390
_cell_formula_units_Z   2
loop_
 _symmetry_equiv_pos_site_id
 _symmetry_equiv_pos_as_xyz
  1  'x, y, z'
loop_
 _atom_site_type_symbol
 _atom_site_label
 _atom_site_symmetry_multiplicity
 _atom_site_fract_x
 _atom_site_fract_y
 _atom_site_fract_z
 _atom_site_occupancy
  Bi  Bi0  1  0.78449615  0.35351356  0.56899313  1.0
  Bi  Bi1  1  0.21550413  0.64648729  0.43100739  1.0
  I  I2  1  0.38076844  0.14225640  0.76153625  1.0
  I  I3  1  0.61923161  0.85774377  0.23846387  1.0
  O  O4  1  0.13705785  0.41111201  0.27411512  1.0
  O  O5  1  0.86294183  0.58888697  0.72588424  1.0
