# generated using pymatgen
data_BiOF
_symmetry_space_group_name_H-M   'P 1'
_cell_length_a   4.00692002
_cell_length_b   7.22800337
_cell_length_c   4.00698416
_cell_angle_alpha   106.09273178
_cell_angle_beta   119.99954330
_cell_angle_gamma   89.99995655
_symmetry_Int_Tables_number   1
_chemical_formula_structural   BiOF
_chemical_formula_sum   'Bi2 O2 F2'
_cell_volume   95.21589093
_cell_formula_units_Z   2
loop_
 _symmetry_equiv_pos_site_id
 _symmetry_equiv_pos_as_xyz
  1  'x, y, z'
loop_
 _atom_site_type_symbol
 _atom_site_label
 _atom_site_symmetry_multiplicity
 _atom_site_fract_x
 _atom_site_fract_y
 _atom_site_fract_z
 _atom_site_occupancy
  Bi  Bi0  1  0.73867092  0.21601176  0.47734228  1.0
  Bi  Bi1  1  0.26132913  0.78398824  0.52265782  1.0
  O  O2  1  0.37149304  0.11445213  0.74298579  1.0
  O  O3  1  0.62850693  0.88554787  0.25701413  1.0
  F  F4  1  0.12119091  0.36354701  0.24238239  1.0
  F  F5  1  0.87880907  0.63645299  0.75761760  1.0
