# generated using pymatgen
data_BiPO5
_symmetry_space_group_name_H-M   'P 1'
_cell_length_a   6.73081613
_cell_length_b   7.84588536
_cell_length_c   7.63419214
_cell_angle_alpha   90.00118848
_cell_angle_beta   89.99999895
_cell_angle_gamma   89.99999914
_symmetry_Int_Tables_number   1
_chemical_formula_structural   BiPO5
_chemical_formula_sum   'Bi4 P4 O20'
_cell_volume   403.15566906
_cell_formula_units_Z   4
loop_
 _symmetry_equiv_pos_site_id
 _symmetry_equiv_pos_as_xyz
  1  'x, y, z'
loop_
 _atom_site_type_symbol
 _atom_site_label
 _atom_site_symmetry_multiplicity
 _atom_site_fract_x
 _atom_site_fract_y
 _atom_site_fract_z
 _atom_site_occupancy
  Bi  Bi0  1  0.25000001  0.74033661  0.13088635  1.0
  Bi  Bi1  1  0.75000000  0.24033482  0.36911403  1.0
  Bi  Bi2  1  0.25000001  0.75966433  0.63088614  1.0
  Bi  Bi3  1  0.74999998  0.25966413  0.86911385  1.0
  P  P4  1  0.74999999  0.62394813  0.12848285  1.0
  P  P5  1  0.25000000  0.12391456  0.37149808  1.0
  P  P6  1  0.75000000  0.87606136  0.62849834  1.0
  P  P7  1  0.25000001  0.37607584  0.87151345  1.0
  O  O8  1  0.25000015  0.47507723  0.04819591  1.0
  O  O9  1  0.74999999  0.13936039  0.11480883  1.0
  O  O10  1  0.57190782  0.74941690  0.13450025  1.0
  O  O11  1  0.92809220  0.74941687  0.13449996  1.0
  O  O12  1  0.24999985  0.00438223  0.21111481  1.0
  O  O13  1  0.75000015  0.50436443  0.28890530  1.0
  O  O14  1  0.07189919  0.24942303  0.36549880  1.0
  O  O15  1  0.42810079  0.24942305  0.36549852  1.0
  O  O16  1  0.25000000  0.63935755  0.38519477  1.0
  O  O17  1  0.74999986  0.97508668  0.45179124  1.0
  O  O18  1  0.25000017  0.02491956  0.54820087  1.0
  O  O19  1  0.74999998  0.36063987  0.61480534  1.0
  O  O20  1  0.57190416  0.75058093  0.63450119  1.0
  O  O21  1  0.92809587  0.75058095  0.63450094  1.0
  O  O22  1  0.24999988  0.49562489  0.71110633  1.0
  O  O23  1  0.75000013  0.99562861  0.78889691  1.0
  O  O24  1  0.07190270  0.25057910  0.86549973  1.0
  O  O25  1  0.42809727  0.25057907  0.86549948  1.0
  O  O26  1  0.25000003  0.86064218  0.88519129  1.0
  O  O27  1  0.74999981  0.52491669  0.95179645  1.0
