# generated using pymatgen
data_BiSeF
_symmetry_space_group_name_H-M   'P 1'
_cell_length_a   4.24310832
_cell_length_b   8.98687390
_cell_length_c   4.24332463
_cell_angle_alpha   103.64908028
_cell_angle_beta   119.99833884
_cell_angle_gamma   90.00010522
_symmetry_Int_Tables_number   1
_chemical_formula_structural   BiSeF
_chemical_formula_sum   'Bi2 Se2 F2'
_cell_volume   134.82962345
_cell_formula_units_Z   2
loop_
 _symmetry_equiv_pos_site_id
 _symmetry_equiv_pos_as_xyz
  1  'x, y, z'
loop_
 _atom_site_type_symbol
 _atom_site_label
 _atom_site_symmetry_multiplicity
 _atom_site_fract_x
 _atom_site_fract_y
 _atom_site_fract_z
 _atom_site_occupancy
  Bi  Bi0  1  0.73197455  0.19590097  0.46394935  1.0
  Bi  Bi1  1  0.26802546  0.80409901  0.53605067  1.0
  Se  Se2  1  0.12021039  0.36067970  0.24042274  1.0
  Se  Se3  1  0.87978945  0.63932027  0.75957719  1.0
  F  F4  1  0.36369795  0.09098659  0.72740279  1.0
  F  F5  1  0.63630220  0.90901346  0.27259726  1.0
