# generated using pymatgen
data_Ca2GeO4
_symmetry_space_group_name_H-M   'P 1'
_cell_length_a   5.29166260
_cell_length_b   6.84381909
_cell_length_c   11.51880009
_cell_angle_alpha   90.00000018
_cell_angle_beta   90.00000637
_cell_angle_gamma   90.00000000
_symmetry_Int_Tables_number   1
_chemical_formula_structural   Ca2GeO4
_chemical_formula_sum   'Ca8 Ge4 O16'
_cell_volume   417.15543615
_cell_formula_units_Z   4
loop_
 _symmetry_equiv_pos_site_id
 _symmetry_equiv_pos_as_xyz
  1  'x, y, z'
loop_
 _atom_site_type_symbol
 _atom_site_label
 _atom_site_symmetry_multiplicity
 _atom_site_fract_x
 _atom_site_fract_y
 _atom_site_fract_z
 _atom_site_occupancy
  Ca  Ca0  1  0.99999993  0.99999997  0.00000006  1.0
  Ca  Ca1  1  0.99999993  0.50000003  0.00000006  1.0
  Ca  Ca2  1  0.99455365  0.25000000  0.71995413  1.0
  Ca  Ca3  1  0.50544697  0.25000000  0.21995414  1.0
  Ca  Ca4  1  0.50000038  0.00000003  0.49999997  1.0
  Ca  Ca5  1  0.50000038  0.49999997  0.49999997  1.0
  Ca  Ca6  1  0.49455362  0.75000000  0.78004584  1.0
  Ca  Ca7  1  0.00544633  0.75000000  0.28004586  1.0
  Ge  Ge8  1  0.93103252  0.75000000  0.59623364  1.0
  Ge  Ge9  1  0.56896966  0.75000000  0.09623380  1.0
  Ge  Ge10  1  0.43103266  0.25000000  0.90376651  1.0
  Ge  Ge11  1  0.06896349  0.25000000  0.40376632  1.0
  O  O12  1  0.78634885  0.75000000  0.45400202  1.0
  O  O13  1  0.78390386  0.95680644  0.66399297  1.0
  O  O14  1  0.78390385  0.54319356  0.66399297  1.0
  O  O15  1  0.76481210  0.25000000  0.90703918  1.0
  O  O16  1  0.73518768  0.25000000  0.40703916  1.0
  O  O17  1  0.71609640  0.95680682  0.16399293  1.0
  O  O18  1  0.71609641  0.54319317  0.16399292  1.0
  O  O19  1  0.71365216  0.75000000  0.95400105  1.0
  O  O20  1  0.28634860  0.25000000  0.04599811  1.0
  O  O21  1  0.28390386  0.45680641  0.83600716  1.0
  O  O22  1  0.28390387  0.04319360  0.83600715  1.0
  O  O23  1  0.26481205  0.75000000  0.59296096  1.0
  O  O24  1  0.23518407  0.75000000  0.09296069  1.0
  O  O25  1  0.21609715  0.45680784  0.33600664  1.0
  O  O26  1  0.21609715  0.04319216  0.33600664  1.0
  O  O27  1  0.21365244  0.25000000  0.54599915  1.0
