# generated using pymatgen
data_CaAl2O4
_symmetry_space_group_name_H-M   'P 1'
_cell_length_a   7.74510571
_cell_length_b   9.01323870
_cell_length_c   10.17124402
_cell_angle_alpha   89.99999898
_cell_angle_beta   89.99999929
_cell_angle_gamma   90.00000089
_symmetry_Int_Tables_number   1
_chemical_formula_structural   CaAl2O4
_chemical_formula_sum   'Ca8 Al16 O32'
_cell_volume   710.03915107
_cell_formula_units_Z   8
loop_
 _symmetry_equiv_pos_site_id
 _symmetry_equiv_pos_as_xyz
  1  'x, y, z'
loop_
 _atom_site_type_symbol
 _atom_site_label
 _atom_site_symmetry_multiplicity
 _atom_site_fract_x
 _atom_site_fract_y
 _atom_site_fract_z
 _atom_site_occupancy
  Ca  Ca0  1  0.50561125  0.08114440  0.89056093  1.0
  Ca  Ca1  1  0.49605942  0.62270685  0.67815138  1.0
  Ca  Ca2  1  0.99605924  0.12270685  0.82184868  1.0
  Ca  Ca3  1  0.00561143  0.58114459  0.60943906  1.0
  Ca  Ca4  1  0.50394062  0.12270692  0.32184864  1.0
  Ca  Ca5  1  0.49438853  0.58114461  0.10943899  1.0
  Ca  Ca6  1  0.99438859  0.08114451  0.39056096  1.0
  Ca  Ca7  1  0.00394068  0.62270681  0.17815138  1.0
  Al  Al8  1  0.78890787  0.74956812  0.88430884  1.0
  Al  Al9  1  0.74885112  0.42341182  0.84784085  1.0
  Al  Al10  1  0.69307852  0.92358890  0.63027124  1.0
  Al  Al11  1  0.25114887  0.92341187  0.15215917  1.0
  Al  Al12  1  0.28890787  0.24956814  0.61569114  1.0
  Al  Al13  1  0.80692149  0.92358892  0.13027125  1.0
  Al  Al14  1  0.71109213  0.74956814  0.38430887  1.0
  Al  Al15  1  0.30692152  0.42358889  0.36972874  1.0
  Al  Al16  1  0.31563469  0.74975214  0.40583360  1.0
  Al  Al17  1  0.81563465  0.24975215  0.09416641  1.0
  Al  Al18  1  0.68436536  0.24975215  0.59416640  1.0
  Al  Al19  1  0.75114888  0.42341181  0.34784089  1.0
  Al  Al20  1  0.24885115  0.92341184  0.65215910  1.0
  Al  Al21  1  0.19307850  0.42358888  0.86972875  1.0
  Al  Al22  1  0.21109216  0.24956814  0.11569117  1.0
  Al  Al23  1  0.18436532  0.74975217  0.90583357  1.0
  O  O24  1  0.33397444  0.91471902  0.31463606  1.0
  O  O25  1  0.68654591  0.27601330  0.95251859  1.0
  O  O26  1  0.98041973  0.69435354  0.96278599  1.0
  O  O27  1  0.25463155  0.59988608  0.80512583  1.0
  O  O28  1  0.26138082  0.42143052  0.03826223  1.0
  O  O29  1  0.97432219  0.40613669  0.81319196  1.0
  O  O30  1  0.76138084  0.92143048  0.46173779  1.0
  O  O31  1  0.81345408  0.27601334  0.45251858  1.0
  O  O32  1  0.74536851  0.09988609  0.19487422  1.0
  O  O33  1  0.18654594  0.77601335  0.54748138  1.0
  O  O34  1  0.51958028  0.69435357  0.46278599  1.0
  O  O35  1  0.16602556  0.91471901  0.81463607  1.0
  O  O36  1  0.47432219  0.90613669  0.68680800  1.0
  O  O37  1  0.23861920  0.42143051  0.53826222  1.0
  O  O38  1  0.15207792  0.09177112  0.59205127  1.0
  O  O39  1  0.70816851  0.76571631  0.20888190  1.0
  O  O40  1  0.01958026  0.19435360  0.03721403  1.0
  O  O41  1  0.75463152  0.09988608  0.69487421  1.0
  O  O42  1  0.31345405  0.77601340  0.04748138  1.0
  O  O43  1  0.24536853  0.59988607  0.30512575  1.0
  O  O44  1  0.20816856  0.26571626  0.29111809  1.0
  O  O45  1  0.73861914  0.92143048  0.96173778  1.0
  O  O46  1  0.52567782  0.40613666  0.31319197  1.0
  O  O47  1  0.84792210  0.59177112  0.40794871  1.0
  O  O48  1  0.79183149  0.76571628  0.70888193  1.0
  O  O49  1  0.29183144  0.26571626  0.79111812  1.0
  O  O50  1  0.48041973  0.19435359  0.53721405  1.0
  O  O51  1  0.34792207  0.09177112  0.09205126  1.0
  O  O52  1  0.83397449  0.41471900  0.18536392  1.0
  O  O53  1  0.02567780  0.90613669  0.18680800  1.0
  O  O54  1  0.65207791  0.59177111  0.90794873  1.0
  O  O55  1  0.66602556  0.41471904  0.68536396  1.0
