# generated using pymatgen
data_CaIn2O4
_symmetry_space_group_name_H-M   'P 1'
_cell_length_a   3.26145153
_cell_length_b   9.78321279
_cell_length_c   11.46031348
_cell_angle_alpha   90.00000238
_cell_angle_beta   90.00000313
_cell_angle_gamma   89.97723649
_symmetry_Int_Tables_number   1
_chemical_formula_structural   CaIn2O4
_chemical_formula_sum   'Ca4 In8 O16'
_cell_volume   365.66962923
_cell_formula_units_Z   4
loop_
 _symmetry_equiv_pos_site_id
 _symmetry_equiv_pos_as_xyz
  1  'x, y, z'
loop_
 _atom_site_type_symbol
 _atom_site_label
 _atom_site_symmetry_multiplicity
 _atom_site_fract_x
 _atom_site_fract_y
 _atom_site_fract_z
 _atom_site_occupancy
  Ca  Ca0  1  0.75000624  0.74400267  0.65166686  1.0
  Ca  Ca1  1  0.24999340  0.75599721  0.15166692  1.0
  Ca  Ca2  1  0.75000648  0.24400279  0.84833311  1.0
  Ca  Ca3  1  0.24999382  0.25599729  0.34833315  1.0
  In  In4  1  0.75002551  0.58371304  0.39420633  1.0
  In  In5  1  0.74996932  0.56918497  0.88673433  1.0
  In  In6  1  0.25003071  0.93081486  0.38673439  1.0
  In  In7  1  0.24997442  0.91628689  0.89420631  1.0
  In  In8  1  0.75002559  0.08371311  0.10579366  1.0
  In  In9  1  0.74996930  0.06918498  0.61326559  1.0
  In  In10  1  0.25003076  0.43081504  0.11326563  1.0
  In  In11  1  0.24997449  0.41628689  0.60579362  1.0
  O  O12  1  0.25003715  0.52577522  0.28288563  1.0
  O  O13  1  0.75012195  0.58841314  0.07455149  1.0
  O  O14  1  0.25008041  0.62581094  0.52729135  1.0
  O  O15  1  0.25002863  0.70677731  0.82178272  1.0
  O  O16  1  0.74997141  0.79322274  0.32178267  1.0
  O  O17  1  0.74991951  0.87418911  0.02729127  1.0
  O  O18  1  0.24987805  0.91158693  0.57455149  1.0
  O  O19  1  0.74996280  0.97422498  0.78288561  1.0
  O  O20  1  0.25003724  0.02577509  0.21711444  1.0
  O  O21  1  0.75012190  0.08841294  0.42544849  1.0
  O  O22  1  0.25008040  0.12581101  0.97270872  1.0
  O  O23  1  0.25002856  0.20677734  0.67821731  1.0
  O  O24  1  0.74997149  0.29322278  0.17821729  1.0
  O  O25  1  0.74991960  0.37418900  0.47270865  1.0
  O  O26  1  0.24987803  0.41158690  0.92544858  1.0
  O  O27  1  0.74996284  0.47422484  0.71711438  1.0
