# generated using pymatgen
data_CaSO3
_symmetry_space_group_name_H-M   'P 1'
_cell_length_a   8.43433803
_cell_length_b   8.43433799
_cell_length_c   8.43433798
_cell_angle_alpha   109.01319422
_cell_angle_beta   109.01319458
_cell_angle_gamma   109.01319513
_symmetry_Int_Tables_number   1
_chemical_formula_structural   CaSO3
_chemical_formula_sum   'Ca6 S6 O18'
_cell_volume   469.55131119
_cell_formula_units_Z   6
loop_
 _symmetry_equiv_pos_site_id
 _symmetry_equiv_pos_as_xyz
  1  'x, y, z'
loop_
 _atom_site_type_symbol
 _atom_site_label
 _atom_site_symmetry_multiplicity
 _atom_site_fract_x
 _atom_site_fract_y
 _atom_site_fract_z
 _atom_site_occupancy
  Ca  Ca0  1  0.17840836  0.35436580  0.67031828  1.0
  Ca  Ca1  1  0.35436580  0.67031828  0.17840836  1.0
  Ca  Ca2  1  0.67031829  0.17840836  0.35436580  1.0
  Ca  Ca3  1  0.82159164  0.64563420  0.32968172  1.0
  Ca  Ca4  1  0.64563420  0.32968172  0.82159164  1.0
  Ca  Ca5  1  0.32968171  0.82159164  0.64563420  1.0
  S  S6  1  0.21771358  0.02351978  0.35564026  1.0
  S  S7  1  0.02351977  0.35564026  0.21771357  1.0
  S  S8  1  0.35564026  0.21771356  0.02351977  1.0
  S  S9  1  0.78228642  0.97648022  0.64435974  1.0
  S  S10  1  0.97648023  0.64435974  0.78228643  1.0
  S  S11  1  0.64435974  0.78228644  0.97648023  1.0
  O  O12  1  0.87090829  0.12341682  0.58366161  1.0
  O  O13  1  0.12341680  0.58366159  0.87090828  1.0
  O  O14  1  0.58366159  0.87090828  0.12341681  1.0
  O  O15  1  0.12909171  0.87658318  0.41633839  1.0
  O  O16  1  0.87658320  0.41633841  0.12909172  1.0
  O  O17  1  0.41633841  0.12909172  0.87658319  1.0
  O  O18  1  0.31125551  0.36602937  0.97363599  1.0
  O  O19  1  0.36602939  0.97363601  0.31125552  1.0
  O  O20  1  0.97363599  0.31125550  0.36602936  1.0
  O  O21  1  0.68874449  0.63397063  0.02636401  1.0
  O  O22  1  0.63397061  0.02636399  0.68874448  1.0
  O  O23  1  0.02636401  0.68874450  0.63397064  1.0
  O  O24  1  0.45382092  0.65595035  0.78356525  1.0
  O  O25  1  0.78356524  0.45382091  0.65595034  1.0
  O  O26  1  0.65595035  0.78356525  0.45382091  1.0
  O  O27  1  0.54617908  0.34404965  0.21643475  1.0
  O  O28  1  0.21643476  0.54617909  0.34404966  1.0
  O  O29  1  0.34404965  0.21643475  0.54617909  1.0
