# generated using pymatgen
data_CaTb2O4
_symmetry_space_group_name_H-M   'P 1'
_cell_length_a   3.40690589
_cell_length_b   9.94608618
_cell_length_c   11.88459538
_cell_angle_alpha   89.99999681
_cell_angle_beta   90.00000140
_cell_angle_gamma   90.00000256
_symmetry_Int_Tables_number   1
_chemical_formula_structural   CaTb2O4
_chemical_formula_sum   'Ca4 Tb8 O16'
_cell_volume   402.71402571
_cell_formula_units_Z   4
loop_
 _symmetry_equiv_pos_site_id
 _symmetry_equiv_pos_as_xyz
  1  'x, y, z'
loop_
 _atom_site_type_symbol
 _atom_site_label
 _atom_site_symmetry_multiplicity
 _atom_site_fract_x
 _atom_site_fract_y
 _atom_site_fract_z
 _atom_site_occupancy
  Ca  Ca0  1  0.75000007  0.74185851  0.64447764  1.0
  Ca  Ca1  1  0.24999979  0.75814148  0.14447758  1.0
  Ca  Ca2  1  0.75000004  0.24185855  0.85552244  1.0
  Ca  Ca3  1  0.25000003  0.25814142  0.35552235  1.0
  Tb  Tb4  1  0.74999999  0.57417219  0.38621105  1.0
  Tb  Tb5  1  0.74999992  0.58297854  0.88751252  1.0
  Tb  Tb6  1  0.25000001  0.91702138  0.38751242  1.0
  Tb  Tb7  1  0.24999999  0.92582783  0.88621115  1.0
  Tb  Tb8  1  0.75000000  0.07417226  0.11378881  1.0
  Tb  Tb9  1  0.75000006  0.08297862  0.61248761  1.0
  Tb  Tb10  1  0.25000001  0.41702144  0.11248747  1.0
  Tb  Tb11  1  0.25000003  0.42582772  0.61378891  1.0
  O  O12  1  0.25000004  0.49448004  0.29020806  1.0
  O  O13  1  0.75000000  0.57538633  0.08311755  1.0
  O  O14  1  0.25000000  0.63584449  0.51800726  1.0
  O  O15  1  0.24999997  0.71668721  0.81432129  1.0
  O  O16  1  0.75000005  0.78331280  0.31432130  1.0
  O  O17  1  0.74999997  0.86415556  0.01800731  1.0
  O  O18  1  0.25000004  0.92461367  0.58311755  1.0
  O  O19  1  0.75000003  0.00551995  0.79020796  1.0
  O  O20  1  0.24999999  0.99448013  0.20979212  1.0
  O  O21  1  0.75000002  0.07538626  0.41688247  1.0
  O  O22  1  0.24999999  0.13584448  0.98199271  1.0
  O  O23  1  0.25000005  0.21668720  0.68567868  1.0
  O  O24  1  0.74999998  0.28331281  0.18567869  1.0
  O  O25  1  0.75000001  0.36415548  0.48199272  1.0
  O  O26  1  0.24999996  0.42461373  0.91688245  1.0
  O  O27  1  0.74999998  0.50551994  0.70979193  1.0
