# generated using pymatgen
data_CaY2O4
_symmetry_space_group_name_H-M   'P 1'
_cell_length_a   3.37964464
_cell_length_b   9.90202374
_cell_length_c   11.81349128
_cell_angle_alpha   89.99999817
_cell_angle_beta   89.99999452
_cell_angle_gamma   90.00000601
_symmetry_Int_Tables_number   1
_chemical_formula_structural   CaY2O4
_chemical_formula_sum   'Ca4 Y8 O16'
_cell_volume   395.34228323
_cell_formula_units_Z   4
loop_
 _symmetry_equiv_pos_site_id
 _symmetry_equiv_pos_as_xyz
  1  'x, y, z'
loop_
 _atom_site_type_symbol
 _atom_site_label
 _atom_site_symmetry_multiplicity
 _atom_site_fract_x
 _atom_site_fract_y
 _atom_site_fract_z
 _atom_site_occupancy
  Ca  Ca0  1  0.75000030  0.74312724  0.64566976  1.0
  Ca  Ca1  1  0.25000005  0.75687272  0.14566994  1.0
  Ca  Ca2  1  0.75000002  0.24312718  0.85433016  1.0
  Ca  Ca3  1  0.24999998  0.25687283  0.35433017  1.0
  Y  Y4  1  0.74999993  0.57548181  0.38732275  1.0
  Y  Y5  1  0.75000007  0.58056629  0.88700839  1.0
  Y  Y6  1  0.25000030  0.91943375  0.38700857  1.0
  Y  Y7  1  0.25000000  0.92451812  0.88732281  1.0
  Y  Y8  1  0.74999957  0.07548174  0.11267742  1.0
  Y  Y9  1  0.75000010  0.08056621  0.61299151  1.0
  Y  Y10  1  0.24999990  0.41943360  0.11299149  1.0
  Y  Y11  1  0.25000007  0.42451830  0.61267718  1.0
  O  O12  1  0.24999996  0.50089393  0.28841888  1.0
  O  O13  1  0.74999986  0.57720329  0.08110361  1.0
  O  O14  1  0.25000008  0.63393809  0.51968311  1.0
  O  O15  1  0.25000013  0.71536176  0.81561906  1.0
  O  O16  1  0.75000007  0.78463829  0.31561874  1.0
  O  O17  1  0.74999991  0.86606197  0.01968330  1.0
  O  O18  1  0.25000016  0.92279662  0.58110372  1.0
  O  O19  1  0.74999992  0.99910587  0.78841914  1.0
  O  O20  1  0.24999977  0.00089448  0.21158110  1.0
  O  O21  1  0.75000016  0.07720343  0.41889649  1.0
  O  O22  1  0.24999961  0.13393799  0.98031680  1.0
  O  O23  1  0.25000009  0.21536177  0.68438107  1.0
  O  O24  1  0.74999978  0.28463823  0.18438084  1.0
  O  O25  1  0.74999991  0.36606202  0.48031674  1.0
  O  O26  1  0.25000016  0.42279647  0.91889624  1.0
  O  O27  1  0.75000014  0.49910600  0.71158101  1.0
