# generated using pymatgen
data_CdPbF6
_symmetry_space_group_name_H-M   'P 1'
_cell_length_a   5.97599241
_cell_length_b   5.97599244
_cell_length_c   5.97599211
_cell_angle_alpha   53.68948961
_cell_angle_beta   53.68949268
_cell_angle_gamma   53.68949132
_symmetry_Int_Tables_number   1
_chemical_formula_structural   CdPbF6
_chemical_formula_sum   'Cd1 Pb1 F6'
_cell_volume   128.64034224
_cell_formula_units_Z   1
loop_
 _symmetry_equiv_pos_site_id
 _symmetry_equiv_pos_as_xyz
  1  'x, y, z'
loop_
 _atom_site_type_symbol
 _atom_site_label
 _atom_site_symmetry_multiplicity
 _atom_site_fract_x
 _atom_site_fract_y
 _atom_site_fract_z
 _atom_site_occupancy
  Cd  Cd0  1  0.00000000  0.00000000  0.00000000  1.0
  Pb  Pb1  1  0.50000000  0.50000001  0.50000000  1.0
  F  F2  1  0.41313578  0.10661171  0.73817218  1.0
  F  F3  1  0.10661168  0.73817226  0.41313571  1.0
  F  F4  1  0.26182776  0.58686425  0.89338830  1.0
  F  F5  1  0.89338830  0.26182776  0.58686429  1.0
  F  F6  1  0.58686422  0.89338826  0.26182785  1.0
  F  F7  1  0.73817225  0.41313575  0.10661169  1.0
