# generated using pymatgen
data_CdSeO3
_symmetry_space_group_name_H-M   'P 1'
_cell_length_a   8.57678058
_cell_length_b   8.57678021
_cell_length_c   8.57678022
_cell_angle_alpha   109.34723657
_cell_angle_beta   109.34723237
_cell_angle_gamma   109.34723197
_symmetry_Int_Tables_number   1
_chemical_formula_structural   CdSeO3
_chemical_formula_sum   'Cd6 Se6 O18'
_cell_volume   487.89762081
_cell_formula_units_Z   6
loop_
 _symmetry_equiv_pos_site_id
 _symmetry_equiv_pos_as_xyz
  1  'x, y, z'
loop_
 _atom_site_type_symbol
 _atom_site_label
 _atom_site_symmetry_multiplicity
 _atom_site_fract_x
 _atom_site_fract_y
 _atom_site_fract_z
 _atom_site_occupancy
  Cd  Cd0  1  0.18922088  0.37099230  0.68171125  1.0
  Cd  Cd1  1  0.37099228  0.68171126  0.18922088  1.0
  Cd  Cd2  1  0.68171125  0.18922085  0.37099226  1.0
  Cd  Cd3  1  0.81077913  0.62900772  0.31828876  1.0
  Cd  Cd4  1  0.62900772  0.31828875  0.81077912  1.0
  Cd  Cd5  1  0.31828875  0.81077914  0.62900774  1.0
  Se  Se6  1  0.20126967  0.02163155  0.34963641  1.0
  Se  Se7  1  0.02163148  0.34963636  0.20126964  1.0
  Se  Se8  1  0.34963624  0.20126955  0.02163142  1.0
  Se  Se9  1  0.79873017  0.97836827  0.65036335  1.0
  Se  Se10  1  0.97836842  0.65036351  0.79873031  1.0
  Se  Se11  1  0.65036361  0.79873032  0.97836843  1.0
  O  O12  1  0.88295087  0.13827746  0.57851120  1.0
  O  O13  1  0.13827745  0.57851118  0.88295084  1.0
  O  O14  1  0.57851116  0.88295088  0.13827751  1.0
  O  O15  1  0.11704914  0.86172252  0.42148884  1.0
  O  O16  1  0.86172255  0.42148884  0.11704916  1.0
  O  O17  1  0.42148885  0.11704913  0.86172249  1.0
  O  O18  1  0.30833801  0.37059085  0.97900863  1.0
  O  O19  1  0.37059076  0.97900860  0.30833796  1.0
  O  O20  1  0.97900861  0.30833792  0.37059072  1.0
  O  O21  1  0.69166201  0.62940919  0.02099137  1.0
  O  O22  1  0.62940926  0.02099141  0.69166205  1.0
  O  O23  1  0.02099140  0.69166209  0.62940926  1.0
  O  O24  1  0.43908909  0.65869754  0.76268470  1.0
  O  O25  1  0.76268477  0.43908911  0.65869754  1.0
  O  O26  1  0.65869766  0.76268491  0.43908930  1.0
  O  O27  1  0.56091104  0.34130255  0.23731542  1.0
  O  O28  1  0.23731532  0.56091098  0.34130252  1.0
  O  O29  1  0.34130247  0.23731528  0.56091088  1.0
