# generated using pymatgen
data_Co2SO2
_symmetry_space_group_name_H-M   'P 1'
_cell_length_a   3.35359695
_cell_length_b   3.35359722
_cell_length_c   5.98162237
_cell_angle_alpha   90.00000890
_cell_angle_beta   89.99999028
_cell_angle_gamma   120.00002393
_symmetry_Int_Tables_number   1
_chemical_formula_structural   Co2SO2
_chemical_formula_sum   'Co2 S1 O2'
_cell_volume   58.26010805
_cell_formula_units_Z   1
loop_
 _symmetry_equiv_pos_site_id
 _symmetry_equiv_pos_as_xyz
  1  'x, y, z'
loop_
 _atom_site_type_symbol
 _atom_site_label
 _atom_site_symmetry_multiplicity
 _atom_site_fract_x
 _atom_site_fract_y
 _atom_site_fract_z
 _atom_site_occupancy
  Co  Co0  1  0.66666667  0.33333333  0.71504720  1.0
  Co  Co1  1  0.33333333  0.66666667  0.28495489  1.0
  S  S2  1  0.00000000  0.00000004  0.00000240  1.0
  O  O3  1  0.66666667  0.33333333  0.36764008  1.0
  O  O4  1  0.33333333  0.66666667  0.63235542  1.0
