# generated using pymatgen
data_CoBiO3
_symmetry_space_group_name_H-M   'P 1'
_cell_length_a   5.73232056
_cell_length_b   5.71848736
_cell_length_c   5.65368804
_cell_angle_alpha   59.72752494
_cell_angle_beta   59.53733720
_cell_angle_gamma   57.56013624
_symmetry_Int_Tables_number   1
_chemical_formula_structural   CoBiO3
_chemical_formula_sum   'Co2 Bi2 O6'
_cell_volume   127.76837078
_cell_formula_units_Z   2
loop_
 _symmetry_equiv_pos_site_id
 _symmetry_equiv_pos_as_xyz
  1  'x, y, z'
loop_
 _atom_site_type_symbol
 _atom_site_label
 _atom_site_symmetry_multiplicity
 _atom_site_fract_x
 _atom_site_fract_y
 _atom_site_fract_z
 _atom_site_occupancy
  Co  Co0  1  0.73680066  0.71991814  0.72710887  1.0
  Co  Co1  1  0.22109169  0.23534750  0.22590406  1.0
  Bi  Bi2  1  0.00752131  0.99744026  0.00722734  1.0
  Bi  Bi3  1  0.50023636  0.50633076  0.50625119  1.0
  O  O4  1  0.90138250  0.43243491  0.05122060  1.0
  O  O5  1  0.52576162  0.94859323  0.36987279  1.0
  O  O6  1  0.44748347  0.02756222  0.86912408  1.0
  O  O7  1  0.38122537  0.54224914  0.94315085  1.0
  O  O8  1  0.92932906  0.40179720  0.55160592  1.0
  O  O9  1  0.04216398  0.88132264  0.44153029  1.0
