# generated using pymatgen
data_CrClO
_symmetry_space_group_name_H-M   'P 1'
_cell_length_a   3.50512504
_cell_length_b   3.50765251
_cell_length_c   7.72439419
_cell_angle_alpha   90.00030620
_cell_angle_beta   90.00003748
_cell_angle_gamma   90.01094072
_symmetry_Int_Tables_number   1
_chemical_formula_structural   CrClO
_chemical_formula_sum   'Cr2 Cl2 O2'
_cell_volume   94.96957596
_cell_formula_units_Z   2
loop_
 _symmetry_equiv_pos_site_id
 _symmetry_equiv_pos_as_xyz
  1  'x, y, z'
loop_
 _atom_site_type_symbol
 _atom_site_label
 _atom_site_symmetry_multiplicity
 _atom_site_fract_x
 _atom_site_fract_y
 _atom_site_fract_z
 _atom_site_occupancy
  Cr  Cr0  1  0.74999944  0.74999752  0.87151568  1.0
  Cr  Cr1  1  0.25000019  0.25000220  0.12848088  1.0
  Cl  Cl2  1  0.25000003  0.25000115  0.67908157  1.0
  Cl  Cl3  1  0.75000029  0.74999918  0.32092608  1.0
  O  O4  1  0.75000003  0.24999967  0.99996634  1.0
  O  O5  1  0.25000001  0.75000027  0.00002945  1.0
