# generated using pymatgen
data_CrGaO3
_symmetry_space_group_name_H-M   'P 1'
_cell_length_a   3.82744088
_cell_length_b   3.82739111
_cell_length_c   3.82734979
_cell_angle_alpha   89.99983533
_cell_angle_beta   89.99961467
_cell_angle_gamma   89.99945869
_symmetry_Int_Tables_number   1
_chemical_formula_structural   CrGaO3
_chemical_formula_sum   'Cr1 Ga1 O3'
_cell_volume   56.06728032
_cell_formula_units_Z   1
loop_
 _symmetry_equiv_pos_site_id
 _symmetry_equiv_pos_as_xyz
  1  'x, y, z'
loop_
 _atom_site_type_symbol
 _atom_site_label
 _atom_site_symmetry_multiplicity
 _atom_site_fract_x
 _atom_site_fract_y
 _atom_site_fract_z
 _atom_site_occupancy
  Cr  Cr0  1  0.99999999  0.99999996  0.99999999  1.0
  Ga  Ga1  1  0.49999999  0.50000000  0.50000000  1.0
  O  O2  1  0.49999997  0.49999998  0.00000001  1.0
  O  O3  1  0.50000003  0.00000002  0.50000000  1.0
  O  O4  1  0.00000002  0.50000005  0.50000001  1.0
