# generated using pymatgen
data_CrHO2
_symmetry_space_group_name_H-M   'P 1'
_cell_length_a   3.03692677
_cell_length_b   4.37102138
_cell_length_c   4.94617066
_cell_angle_alpha   90.00000344
_cell_angle_beta   89.99999970
_cell_angle_gamma   89.99999891
_symmetry_Int_Tables_number   1
_chemical_formula_structural   CrHO2
_chemical_formula_sum   'Cr2 H2 O4'
_cell_volume   65.65780315
_cell_formula_units_Z   2
loop_
 _symmetry_equiv_pos_site_id
 _symmetry_equiv_pos_as_xyz
  1  'x, y, z'
loop_
 _atom_site_type_symbol
 _atom_site_label
 _atom_site_symmetry_multiplicity
 _atom_site_fract_x
 _atom_site_fract_y
 _atom_site_fract_z
 _atom_site_occupancy
  Cr  Cr0  1  0.49999999  0.23662571  0.49974608  1.0
  Cr  Cr1  1  0.00000001  0.76337425  0.99974603  1.0
  H  H2  1  0.50000000  0.29131997  0.01527116  1.0
  H  H3  1  0.00000000  0.70868010  0.51527113  1.0
  O  O4  1  0.00000000  0.51245915  0.64227858  1.0
  O  O5  1  0.49999997  0.48754082  0.14227854  1.0
  O  O6  1  0.00000000  0.98533566  0.35600424  1.0
  O  O7  1  0.50000002  0.01466435  0.85600423  1.0
