# generated using pymatgen
data_CrSBr
_symmetry_space_group_name_H-M   'P 1'
_cell_length_a   4.74680974
_cell_length_b   3.54363218
_cell_length_c   8.82990488
_cell_angle_alpha   90.00000269
_cell_angle_beta   89.99999576
_cell_angle_gamma   90.00001290
_symmetry_Int_Tables_number   1
_chemical_formula_structural   CrSBr
_chemical_formula_sum   'Cr2 S2 Br2'
_cell_volume   148.52736860
_cell_formula_units_Z   2
loop_
 _symmetry_equiv_pos_site_id
 _symmetry_equiv_pos_as_xyz
  1  'x, y, z'
loop_
 _atom_site_type_symbol
 _atom_site_label
 _atom_site_symmetry_multiplicity
 _atom_site_fract_x
 _atom_site_fract_y
 _atom_site_fract_z
 _atom_site_occupancy
  Cr  Cr0  1  0.74999984  0.74999999  0.61621754  1.0
  Cr  Cr1  1  0.25000019  0.25000002  0.38378112  1.0
  S  S2  1  0.75000000  0.24999999  0.43535089  1.0
  S  S3  1  0.24999997  0.75000001  0.56465122  1.0
  Br  Br4  1  0.25000025  0.75000001  0.18015037  1.0
  Br  Br5  1  0.74999975  0.24999999  0.81984886  1.0
