# generated using pymatgen
data_Cs2KAlF6
_symmetry_space_group_name_H-M   'P 1'
_cell_length_a   6.38398382
_cell_length_b   6.38398383
_cell_length_c   6.38398359
_cell_angle_alpha   59.99982177
_cell_angle_beta   59.99981952
_cell_angle_gamma   59.99981961
_symmetry_Int_Tables_number   1
_chemical_formula_structural   Cs2KAlF6
_chemical_formula_sum   'Cs2 K1 Al1 F6'
_cell_volume   183.97488947
_cell_formula_units_Z   1
loop_
 _symmetry_equiv_pos_site_id
 _symmetry_equiv_pos_as_xyz
  1  'x, y, z'
loop_
 _atom_site_type_symbol
 _atom_site_label
 _atom_site_symmetry_multiplicity
 _atom_site_fract_x
 _atom_site_fract_y
 _atom_site_fract_z
 _atom_site_occupancy
  Cs  Cs0  1  0.74999996  0.74999999  0.74999998  1.0
  Cs  Cs1  1  0.24999999  0.25000002  0.25000003  1.0
  K  K2  1  0.50000012  0.50000000  0.49999996  1.0
  Al  Al3  1  0.00000000  0.00000001  0.99999999  1.0
  F  F4  1  0.79480383  0.20519651  0.79480384  1.0
  F  F5  1  0.79480343  0.20519617  0.20519625  1.0
  F  F6  1  0.79480379  0.79480384  0.20519651  1.0
  F  F7  1  0.20519652  0.79480380  0.79480378  1.0
  F  F8  1  0.20519619  0.20519617  0.79480348  1.0
  F  F9  1  0.20519617  0.79480348  0.20519619  1.0
