# generated using pymatgen
data_Cs2KMnF6
_symmetry_space_group_name_H-M   'P 1'
_cell_length_a   6.47381006
_cell_length_b   6.59017542
_cell_length_c   6.47353046
_cell_angle_alpha   59.40460272
_cell_angle_beta   61.19391907
_cell_angle_gamma   59.40048869
_symmetry_Int_Tables_number   1
_chemical_formula_structural   Cs2KMnF6
_chemical_formula_sum   'Cs2 K1 Mn1 F6'
_cell_volume   195.16111410
_cell_formula_units_Z   1
loop_
 _symmetry_equiv_pos_site_id
 _symmetry_equiv_pos_as_xyz
  1  'x, y, z'
loop_
 _atom_site_type_symbol
 _atom_site_label
 _atom_site_symmetry_multiplicity
 _atom_site_fract_x
 _atom_site_fract_y
 _atom_site_fract_z
 _atom_site_occupancy
  Cs  Cs0  1  0.74999991  0.74999990  0.74999989  1.0
  Cs  Cs1  1  0.25000008  0.25000012  0.25000010  1.0
  K  K2  1  0.49999999  0.50000000  0.50000000  1.0
  Mn  Mn3  1  0.00000000  0.00000000  0.00000000  1.0
  F  F4  1  0.79174702  0.20825333  0.79174794  1.0
  F  F5  1  0.78140225  0.21859720  0.21859780  1.0
  F  F6  1  0.78138121  0.78138143  0.21861913  1.0
  F  F7  1  0.21859776  0.78140280  0.78140219  1.0
  F  F8  1  0.21861879  0.21861856  0.78138088  1.0
  F  F9  1  0.20825298  0.79174667  0.20825206  1.0
