# generated using pymatgen
data_Cs2KFeF6
_symmetry_space_group_name_H-M   'P 1'
_cell_length_a   6.51386261
_cell_length_b   6.51386252
_cell_length_c   6.51386329
_cell_angle_alpha   59.99992196
_cell_angle_beta   59.99991682
_cell_angle_gamma   59.99992511
_symmetry_Int_Tables_number   1
_chemical_formula_structural   Cs2KFeF6
_chemical_formula_sum   'Cs2 K1 Fe1 F6'
_cell_volume   195.43396771
_cell_formula_units_Z   1
loop_
 _symmetry_equiv_pos_site_id
 _symmetry_equiv_pos_as_xyz
  1  'x, y, z'
loop_
 _atom_site_type_symbol
 _atom_site_label
 _atom_site_symmetry_multiplicity
 _atom_site_fract_x
 _atom_site_fract_y
 _atom_site_fract_z
 _atom_site_occupancy
  Cs  Cs0  1  0.74999996  0.75000002  0.74999999  1.0
  Cs  Cs1  1  0.25000005  0.25000001  0.24999998  1.0
  K  K2  1  0.49999999  0.49999998  0.49999999  1.0
  Fe  Fe3  1  0.00000001  0.99999998  0.00000000  1.0
  F  F4  1  0.78588824  0.21411202  0.78588824  1.0
  F  F5  1  0.78588790  0.21411181  0.21411173  1.0
  F  F6  1  0.78588816  0.78588823  0.21411210  1.0
  F  F7  1  0.21411211  0.78588819  0.78588826  1.0
  F  F8  1  0.21411182  0.21411177  0.78588791  1.0
  F  F9  1  0.21411176  0.78588799  0.21411179  1.0
