# generated using pymatgen
data_Cs2KNF6
_symmetry_space_group_name_H-M   'P 1'
_cell_length_a   6.35153720
_cell_length_b   6.35153720
_cell_length_c   6.35153710
_cell_angle_alpha   59.99980868
_cell_angle_beta   59.99980929
_cell_angle_gamma   59.99980827
_symmetry_Int_Tables_number   1
_chemical_formula_structural   Cs2KNF6
_chemical_formula_sum   'Cs2 K1 N1 F6'
_cell_volume   181.18391943
_cell_formula_units_Z   1
loop_
 _symmetry_equiv_pos_site_id
 _symmetry_equiv_pos_as_xyz
  1  'x, y, z'
loop_
 _atom_site_type_symbol
 _atom_site_label
 _atom_site_symmetry_multiplicity
 _atom_site_fract_x
 _atom_site_fract_y
 _atom_site_fract_z
 _atom_site_occupancy
  Cs  Cs0  1  0.25000009  0.25000005  0.25000009  1.0
  Cs  Cs1  1  0.74999994  0.74999992  0.74999991  1.0
  K  K2  1  0.49999999  0.50000000  0.50000000  1.0
  N  N3  1  0.00000000  0.00000002  0.99999999  1.0
  F  F4  1  0.20649626  0.79350334  0.79350331  1.0
  F  F5  1  0.20649662  0.79350374  0.20649668  1.0
  F  F6  1  0.79350338  0.20649626  0.79350333  1.0
  F  F7  1  0.79350337  0.79350332  0.20649624  1.0
  F  F8  1  0.20649662  0.20649667  0.79350376  1.0
  F  F9  1  0.79350373  0.20649667  0.20649669  1.0
