# generated using pymatgen
data_Cs2KVF6
_symmetry_space_group_name_H-M   'P 1'
_cell_length_a   6.50913265
_cell_length_b   6.52308951
_cell_length_c   6.50906959
_cell_angle_alpha   60.07056170
_cell_angle_beta   59.99990530
_cell_angle_gamma   60.06915741
_symmetry_Int_Tables_number   1
_chemical_formula_structural   Cs2KVF6
_chemical_formula_sum   'Cs2 K1 V1 F6'
_cell_volume   195.63107546
_cell_formula_units_Z   1
loop_
 _symmetry_equiv_pos_site_id
 _symmetry_equiv_pos_as_xyz
  1  'x, y, z'
loop_
 _atom_site_type_symbol
 _atom_site_label
 _atom_site_symmetry_multiplicity
 _atom_site_fract_x
 _atom_site_fract_y
 _atom_site_fract_z
 _atom_site_occupancy
  Cs  Cs0  1  0.74980317  0.75058752  0.74980482  1.0
  Cs  Cs1  1  0.25019645  0.24941261  0.25019550  1.0
  K  K2  1  0.50000027  0.49999986  0.49999979  1.0
  V  V3  1  0.99998988  0.00000489  0.00000758  1.0
  F  F4  1  0.78406952  0.21617497  0.78406915  1.0
  F  F5  1  0.78407083  0.21617220  0.21568530  1.0
  F  F6  1  0.78430728  0.78381776  0.21593748  1.0
  F  F7  1  0.21593474  0.78382270  0.78430963  1.0
  F  F8  1  0.21569518  0.21618382  0.78405989  1.0
  F  F9  1  0.21593268  0.78382368  0.21593085  1.0
