# generated using pymatgen
data_Cs2LiNF6
_symmetry_space_group_name_H-M   'P 1'
_cell_length_a   6.04182224
_cell_length_b   6.04182162
_cell_length_c   6.04182388
_cell_angle_alpha   59.99959278
_cell_angle_beta   59.99965033
_cell_angle_gamma   59.99963791
_symmetry_Int_Tables_number   1
_chemical_formula_structural   Cs2LiNF6
_chemical_formula_sum   'Cs2 Li1 N1 F6'
_cell_volume   155.94994763
_cell_formula_units_Z   1
loop_
 _symmetry_equiv_pos_site_id
 _symmetry_equiv_pos_as_xyz
  1  'x, y, z'
loop_
 _atom_site_type_symbol
 _atom_site_label
 _atom_site_symmetry_multiplicity
 _atom_site_fract_x
 _atom_site_fract_y
 _atom_site_fract_z
 _atom_site_occupancy
  Cs  Cs0  1  0.25000027  0.25000002  0.25000023  1.0
  Cs  Cs1  1  0.74999928  0.75000027  0.74999993  1.0
  Li  Li2  1  0.50000014  0.50000018  0.49999995  1.0
  N  N3  1  0.00000051  0.99999992  0.00000018  1.0
  F  F4  1  0.21990792  0.78009226  0.78009224  1.0
  F  F5  1  0.21990731  0.78009234  0.21990768  1.0
  F  F6  1  0.78009191  0.21990837  0.78009239  1.0
  F  F7  1  0.78009238  0.78009235  0.21990811  1.0
  F  F8  1  0.21990725  0.21990751  0.78009251  1.0
  F  F9  1  0.78009302  0.21990678  0.21990676  1.0
