# generated using pymatgen
data_Cs2MnF6
_symmetry_space_group_name_H-M   'P 1'
_cell_length_a   6.14035384
_cell_length_b   6.14035416
_cell_length_c   5.06967971
_cell_angle_alpha   90.00003701
_cell_angle_beta   89.99996101
_cell_angle_gamma   120.00019547
_symmetry_Int_Tables_number   1
_chemical_formula_structural   Cs2MnF6
_chemical_formula_sum   'Cs2 Mn1 F6'
_cell_volume   165.53777666
_cell_formula_units_Z   1
loop_
 _symmetry_equiv_pos_site_id
 _symmetry_equiv_pos_as_xyz
  1  'x, y, z'
loop_
 _atom_site_type_symbol
 _atom_site_label
 _atom_site_symmetry_multiplicity
 _atom_site_fract_x
 _atom_site_fract_y
 _atom_site_fract_z
 _atom_site_occupancy
  Cs  Cs0  1  0.33333333  0.66666667  0.70341727  1.0
  Cs  Cs1  1  0.66666667  0.33333333  0.29658281  1.0
  Mn  Mn2  1  0.00000139  0.00000029  0.00000002  1.0
  F  F3  1  0.14373639  0.85626370  0.20548447  1.0
  F  F4  1  0.14373690  0.28746836  0.20549347  1.0
  F  F5  1  0.28746794  0.14373675  0.79450643  1.0
  F  F6  1  0.71253137  0.85626298  0.20549398  1.0
  F  F7  1  0.85626288  0.71253149  0.79450641  1.0
  F  F8  1  0.85626321  0.14373646  0.79451516  1.0
