# generated using pymatgen
data_Cs2NaFeCl6
_symmetry_space_group_name_H-M   'P 1'
_cell_length_a   7.43111554
_cell_length_b   7.43111465
_cell_length_c   7.43111532
_cell_angle_alpha   59.99985673
_cell_angle_beta   59.99985181
_cell_angle_gamma   59.99985675
_symmetry_Int_Tables_number   1
_chemical_formula_structural   Cs2NaFeCl6
_chemical_formula_sum   'Cs2 Na1 Fe1 Cl6'
_cell_volume   290.16535128
_cell_formula_units_Z   1
loop_
 _symmetry_equiv_pos_site_id
 _symmetry_equiv_pos_as_xyz
  1  'x, y, z'
loop_
 _atom_site_type_symbol
 _atom_site_label
 _atom_site_symmetry_multiplicity
 _atom_site_fract_x
 _atom_site_fract_y
 _atom_site_fract_z
 _atom_site_occupancy
  Cs  Cs0  1  0.74999998  0.75000003  0.74999996  1.0
  Cs  Cs1  1  0.25000007  0.24999994  0.25000004  1.0
  Na  Na2  1  0.50000001  0.50000000  0.50000000  1.0
  Fe  Fe3  1  0.99999997  0.00000001  0.00000000  1.0
  Cl  Cl4  1  0.76996171  0.23003806  0.23003788  1.0
  Cl  Cl5  1  0.23003808  0.23003793  0.76996176  1.0
  Cl  Cl6  1  0.23003818  0.76996197  0.76996208  1.0
  Cl  Cl7  1  0.23003786  0.76996175  0.23003793  1.0
  Cl  Cl8  1  0.76996217  0.23003829  0.76996198  1.0
  Cl  Cl9  1  0.76996196  0.76996202  0.23003837  1.0
