# generated using pymatgen
data_Cs2NaVCl6
_symmetry_space_group_name_H-M   'P 1'
_cell_length_a   7.40405404
_cell_length_b   7.40132889
_cell_length_c   7.40108218
_cell_angle_alpha   60.01102201
_cell_angle_beta   59.99734982
_cell_angle_gamma   59.99807288
_symmetry_Int_Tables_number   1
_chemical_formula_structural   Cs2NaVCl6
_chemical_formula_sum   'Cs2 Na1 V1 Cl6'
_cell_volume   286.80099126
_cell_formula_units_Z   1
loop_
 _symmetry_equiv_pos_site_id
 _symmetry_equiv_pos_as_xyz
  1  'x, y, z'
loop_
 _atom_site_type_symbol
 _atom_site_label
 _atom_site_symmetry_multiplicity
 _atom_site_fract_x
 _atom_site_fract_y
 _atom_site_fract_z
 _atom_site_occupancy
  Cs  Cs0  1  0.74999329  0.74999231  0.74999309  1.0
  Cs  Cs1  1  0.25000676  0.25000755  0.25000693  1.0
  Na  Na2  1  0.49999999  0.50000002  0.49999999  1.0
  V  V3  1  0.00000012  0.99999977  0.00000008  1.0
  Cl  Cl4  1  0.77006238  0.22992015  0.22991703  1.0
  Cl  Cl5  1  0.22993524  0.22993891  0.77004452  1.0
  Cl  Cl6  1  0.22993751  0.77008000  0.77008308  1.0
  Cl  Cl7  1  0.22990828  0.77007171  0.22990885  1.0
  Cl  Cl8  1  0.77009159  0.22992845  0.77009099  1.0
  Cl  Cl9  1  0.77006483  0.77006115  0.22995544  1.0
