# generated using pymatgen
data_Cs2NaCrCl6
_symmetry_space_group_name_H-M   'P 1'
_cell_length_a   7.40398036
_cell_length_b   7.40397785
_cell_length_c   7.40398002
_cell_angle_alpha   59.99988118
_cell_angle_beta   59.99990198
_cell_angle_gamma   59.99990259
_symmetry_Int_Tables_number   1
_chemical_formula_structural   Cs2NaCrCl6
_chemical_formula_sum   'Cs2 Na1 Cr1 Cl6'
_cell_volume   286.99846752
_cell_formula_units_Z   1
loop_
 _symmetry_equiv_pos_site_id
 _symmetry_equiv_pos_as_xyz
  1  'x, y, z'
loop_
 _atom_site_type_symbol
 _atom_site_label
 _atom_site_symmetry_multiplicity
 _atom_site_fract_x
 _atom_site_fract_y
 _atom_site_fract_z
 _atom_site_occupancy
  Cs  Cs0  1  0.75000002  0.74999997  0.74999998  1.0
  Cs  Cs1  1  0.24999996  0.25000003  0.25000000  1.0
  Na  Na2  1  0.49999999  0.50000000  0.50000000  1.0
  Cr  Cr3  1  0.00000000  0.00000000  0.00000000  1.0
  Cl  Cl4  1  0.77252536  0.22747488  0.22747456  1.0
  Cl  Cl5  1  0.22747511  0.22747393  0.77252533  1.0
  Cl  Cl6  1  0.22747465  0.77252513  0.77252544  1.0
  Cl  Cl7  1  0.22747451  0.77252487  0.22747504  1.0
  Cl  Cl8  1  0.77252547  0.22747513  0.77252499  1.0
  Cl  Cl9  1  0.77252493  0.77252605  0.22747467  1.0
