# generated using pymatgen
data_Cs2NaInF6
_symmetry_space_group_name_H-M   'P 1'
_cell_length_a   6.40960020
_cell_length_b   6.40959884
_cell_length_c   6.40959899
_cell_angle_alpha   59.99984616
_cell_angle_beta   59.99984973
_cell_angle_gamma   59.99983570
_symmetry_Int_Tables_number   1
_chemical_formula_structural   Cs2NaInF6
_chemical_formula_sum   'Cs2 Na1 In1 F6'
_cell_volume   186.19847260
_cell_formula_units_Z   1
loop_
 _symmetry_equiv_pos_site_id
 _symmetry_equiv_pos_as_xyz
  1  'x, y, z'
loop_
 _atom_site_type_symbol
 _atom_site_label
 _atom_site_symmetry_multiplicity
 _atom_site_fract_x
 _atom_site_fract_y
 _atom_site_fract_z
 _atom_site_occupancy
  Cs  Cs0  1  0.75000008  0.75000009  0.75000016  1.0
  Cs  Cs1  1  0.24999991  0.24999994  0.24999983  1.0
  Na  Na2  1  0.50000000  0.50000000  0.50000000  1.0
  In  In3  1  0.00000000  0.00000000  0.00000001  1.0
  F  F4  1  0.76567691  0.23432277  0.23432275  1.0
  F  F5  1  0.23432282  0.23432278  0.76567694  1.0
  F  F6  1  0.23432312  0.76567724  0.76567722  1.0
  F  F7  1  0.23432269  0.76567707  0.23432263  1.0
  F  F8  1  0.76567732  0.23432289  0.76567739  1.0
  F  F9  1  0.76567716  0.76567722  0.23432307  1.0
