# generated using pymatgen
data_Cs2NaNF6
_symmetry_space_group_name_H-M   'P 1'
_cell_length_a   6.15851259
_cell_length_b   6.15851261
_cell_length_c   6.15851562
_cell_angle_alpha   59.99971679
_cell_angle_beta   59.99969694
_cell_angle_gamma   59.99972758
_symmetry_Int_Tables_number   1
_chemical_formula_structural   Cs2NaNF6
_chemical_formula_sum   'Cs2 Na1 N1 F6'
_cell_volume   165.16191117
_cell_formula_units_Z   1
loop_
 _symmetry_equiv_pos_site_id
 _symmetry_equiv_pos_as_xyz
  1  'x, y, z'
loop_
 _atom_site_type_symbol
 _atom_site_label
 _atom_site_symmetry_multiplicity
 _atom_site_fract_x
 _atom_site_fract_y
 _atom_site_fract_z
 _atom_site_occupancy
  Cs  Cs0  1  0.24999998  0.24999986  0.24999996  1.0
  Cs  Cs1  1  0.75000011  0.75000024  0.74999990  1.0
  Na  Na2  1  0.49999994  0.50000003  0.50000002  1.0
  N  N3  1  0.00000005  0.00000003  0.99999904  1.0
  F  F4  1  0.21450809  0.78549187  0.78549159  1.0
  F  F5  1  0.21450867  0.78549133  0.21450857  1.0
  F  F6  1  0.78549186  0.21450815  0.78549193  1.0
  F  F7  1  0.78549153  0.78549107  0.21450842  1.0
  F  F8  1  0.21450858  0.21450842  0.78549161  1.0
  F  F9  1  0.78549119  0.21450900  0.21450896  1.0
