# generated using pymatgen
data_Cs2NaScCl6
_symmetry_space_group_name_H-M   'P 1'
_cell_length_a   7.53076247
_cell_length_b   7.53076607
_cell_length_c   7.53075997
_cell_angle_alpha   59.99999963
_cell_angle_beta   59.99997790
_cell_angle_gamma   59.99996281
_symmetry_Int_Tables_number   1
_chemical_formula_structural   Cs2NaScCl6
_chemical_formula_sum   'Cs2 Na1 Sc1 Cl6'
_cell_volume   301.99636711
_cell_formula_units_Z   1
loop_
 _symmetry_equiv_pos_site_id
 _symmetry_equiv_pos_as_xyz
  1  'x, y, z'
loop_
 _atom_site_type_symbol
 _atom_site_label
 _atom_site_symmetry_multiplicity
 _atom_site_fract_x
 _atom_site_fract_y
 _atom_site_fract_z
 _atom_site_occupancy
  Cs  Cs0  1  0.74999976  0.75000015  0.74999998  1.0
  Cs  Cs1  1  0.24999997  0.25000011  0.24999995  1.0
  Na  Na2  1  0.50000000  0.50000005  0.49999998  1.0
  Sc  Sc3  1  0.00000011  0.99999967  0.00000015  1.0
  Cl  Cl4  1  0.76423495  0.23576521  0.23576501  1.0
  Cl  Cl5  1  0.23576527  0.23576520  0.76423480  1.0
  Cl  Cl6  1  0.23576509  0.76423488  0.76423477  1.0
  Cl  Cl7  1  0.23576516  0.76423491  0.23576525  1.0
  Cl  Cl8  1  0.76423496  0.23576506  0.76423498  1.0
  Cl  Cl9  1  0.76423472  0.76423475  0.23576513  1.0
