# generated using pymatgen
data_Cs2RbNF6
_symmetry_space_group_name_H-M   'P 1'
_cell_length_a   6.44563755
_cell_length_b   6.44563747
_cell_length_c   6.44563716
_cell_angle_alpha   59.99979951
_cell_angle_beta   59.99979938
_cell_angle_gamma   59.99979321
_symmetry_Int_Tables_number   1
_chemical_formula_structural   Cs2RbNF6
_chemical_formula_sum   'Cs2 Rb1 N1 F6'
_cell_volume   189.35667426
_cell_formula_units_Z   1
loop_
 _symmetry_equiv_pos_site_id
 _symmetry_equiv_pos_as_xyz
  1  'x, y, z'
loop_
 _atom_site_type_symbol
 _atom_site_label
 _atom_site_symmetry_multiplicity
 _atom_site_fract_x
 _atom_site_fract_y
 _atom_site_fract_z
 _atom_site_occupancy
  Cs  Cs0  1  0.25000005  0.24999985  0.25000002  1.0
  Cs  Cs1  1  0.75000004  0.74999969  0.74999991  1.0
  Rb  Rb2  1  0.50000007  0.50000001  0.49999986  1.0
  N  N3  1  0.99999956  0.00000056  0.00000030  1.0
  F  F4  1  0.20315654  0.79684356  0.79684346  1.0
  F  F5  1  0.20315599  0.79684409  0.20315627  1.0
  F  F6  1  0.79684382  0.20315623  0.79684405  1.0
  F  F7  1  0.79684370  0.79684403  0.20315625  1.0
  F  F8  1  0.20315595  0.20315620  0.79684413  1.0
  F  F9  1  0.79684428  0.20315578  0.20315575  1.0
