# generated using pymatgen
data_Cs2TlNF6
_symmetry_space_group_name_H-M   'P 1'
_cell_length_a   6.40184975
_cell_length_b   6.40184954
_cell_length_c   6.40184887
_cell_angle_alpha   59.99966356
_cell_angle_beta   59.99967194
_cell_angle_gamma   59.99965333
_symmetry_Int_Tables_number   1
_chemical_formula_structural   Cs2TlNF6
_chemical_formula_sum   'Cs2 Tl1 N1 F6'
_cell_volume   185.52312060
_cell_formula_units_Z   1
loop_
 _symmetry_equiv_pos_site_id
 _symmetry_equiv_pos_as_xyz
  1  'x, y, z'
loop_
 _atom_site_type_symbol
 _atom_site_label
 _atom_site_symmetry_multiplicity
 _atom_site_fract_x
 _atom_site_fract_y
 _atom_site_fract_z
 _atom_site_occupancy
  Cs  Cs0  1  0.25000003  0.25000019  0.24999999  1.0
  Cs  Cs1  1  0.74999992  0.75000004  0.74999989  1.0
  Tl  Tl2  1  0.49999998  0.49999996  0.50000004  1.0
  N  N3  1  0.00000060  0.99999842  0.00000077  1.0
  F  F4  1  0.20698020  0.79301918  0.79301946  1.0
  F  F5  1  0.20698052  0.79301988  0.20698050  1.0
  F  F6  1  0.79301870  0.20698079  0.79301865  1.0
  F  F7  1  0.79301949  0.79301934  0.20698016  1.0
  F  F8  1  0.20698125  0.20698105  0.79301938  1.0
  F  F9  1  0.79301930  0.20698116  0.20698117  1.0
