# generated using pymatgen
data_CSeCl2
_symmetry_space_group_name_H-M   'P 1'
_cell_length_a   6.47886282
_cell_length_b   6.93536491
_cell_length_c   10.48581202
_cell_angle_alpha   78.90565088
_cell_angle_beta   90.00000249
_cell_angle_gamma   89.99999727
_symmetry_Int_Tables_number   1
_chemical_formula_structural   CSeCl2
_chemical_formula_sum   'C4 Se4 Cl8'
_cell_volume   462.35666506
_cell_formula_units_Z   4
loop_
 _symmetry_equiv_pos_site_id
 _symmetry_equiv_pos_as_xyz
  1  'x, y, z'
loop_
 _atom_site_type_symbol
 _atom_site_label
 _atom_site_symmetry_multiplicity
 _atom_site_fract_x
 _atom_site_fract_y
 _atom_site_fract_z
 _atom_site_occupancy
  C  C0  1  0.41603811  0.32775089  0.55252888  1.0
  C  C1  1  0.58396185  0.67224909  0.44747114  1.0
  C  C2  1  0.91603819  0.67224913  0.94747111  1.0
  C  C3  1  0.08396187  0.32775089  0.05252885  1.0
  Se  Se4  1  0.57001509  0.41682202  0.38721415  1.0
  Se  Se5  1  0.42998485  0.58317797  0.61278587  1.0
  Se  Se6  1  0.92998485  0.41682203  0.88721415  1.0
  Se  Se7  1  0.07001513  0.58317798  0.11278584  1.0
  Cl  Cl8  1  0.95759422  0.13345921  0.16011731  1.0
  Cl  Cl9  1  0.65956085  0.74723912  0.97227933  1.0
  Cl  Cl10  1  0.04240582  0.86654079  0.83988272  1.0
  Cl  Cl11  1  0.15956086  0.25276091  0.52772064  1.0
  Cl  Cl12  1  0.45759423  0.86654077  0.33988273  1.0
  Cl  Cl13  1  0.84043912  0.74723903  0.47227935  1.0
  Cl  Cl14  1  0.34043919  0.25276094  0.02772062  1.0
  Cl  Cl15  1  0.54240576  0.13345923  0.66011731  1.0
