# generated using pymatgen
data_CsInSiO4
_symmetry_space_group_name_H-M   'P 1'
_cell_length_a   5.53067580
_cell_length_b   7.23333337
_cell_length_c   10.77960173
_cell_angle_alpha   89.99999311
_cell_angle_beta   89.99999942
_cell_angle_gamma   89.99999893
_symmetry_Int_Tables_number   1
_chemical_formula_structural   CsInSiO4
_chemical_formula_sum   'Cs4 In4 Si4 O16'
_cell_volume   431.24035837
_cell_formula_units_Z   4
loop_
 _symmetry_equiv_pos_site_id
 _symmetry_equiv_pos_as_xyz
  1  'x, y, z'
loop_
 _atom_site_type_symbol
 _atom_site_label
 _atom_site_symmetry_multiplicity
 _atom_site_fract_x
 _atom_site_fract_y
 _atom_site_fract_z
 _atom_site_occupancy
  Cs  Cs0  1  0.00000002  0.00000001  0.99999999  1.0
  Cs  Cs1  1  0.50000001  0.99999997  0.49999999  1.0
  Cs  Cs2  1  0.99999997  0.50000000  0.00000002  1.0
  Cs  Cs3  1  0.49999998  0.49999998  0.50000000  1.0
  In  In4  1  0.96446573  0.75000023  0.29208253  1.0
  In  In5  1  0.53553431  0.75000003  0.79208251  1.0
  In  In6  1  0.03553427  0.25000013  0.70791746  1.0
  In  In7  1  0.46446569  0.24999983  0.20791749  1.0
  Si  Si8  1  0.52059911  0.75000003  0.13736392  1.0
  Si  Si9  1  0.97940094  0.74999995  0.63736387  1.0
  Si  Si10  1  0.47940094  0.25000002  0.86263608  1.0
  Si  Si11  1  0.02059907  0.24999996  0.36263613  1.0
  O  O12  1  0.83633400  0.57470296  0.70435654  1.0
  O  O13  1  0.16366626  0.42529679  0.29564342  1.0
  O  O14  1  0.66366620  0.57470322  0.20435668  1.0
  O  O15  1  0.83633381  0.92529695  0.70435634  1.0
  O  O16  1  0.33633386  0.07470301  0.79564358  1.0
  O  O17  1  0.76804638  0.24999996  0.83868832  1.0
  O  O18  1  0.33633398  0.42529698  0.79564336  1.0
  O  O19  1  0.16366595  0.07470281  0.29564369  1.0
  O  O20  1  0.23195357  0.74999994  0.16131168  1.0
  O  O21  1  0.73195358  0.25000005  0.33868833  1.0
  O  O22  1  0.55774207  0.74999996  0.98399839  1.0
  O  O23  1  0.26804641  0.75000002  0.66131167  1.0
  O  O24  1  0.94225795  0.74999989  0.48399837  1.0
  O  O25  1  0.05774207  0.25000003  0.51600164  1.0
  O  O26  1  0.44225794  0.25000010  0.01600160  1.0
  O  O27  1  0.66366592  0.92529718  0.20435639  1.0
