# generated using pymatgen
data_CsK2NF6
_symmetry_space_group_name_H-M   'P 1'
_cell_length_a   6.43091021
_cell_length_b   6.43091016
_cell_length_c   6.43091001
_cell_angle_alpha   59.99987393
_cell_angle_beta   59.99987539
_cell_angle_gamma   59.99987894
_symmetry_Int_Tables_number   1
_chemical_formula_structural   CsK2NF6
_chemical_formula_sum   'Cs1 K2 N1 F6'
_cell_volume   188.06202270
_cell_formula_units_Z   1
loop_
 _symmetry_equiv_pos_site_id
 _symmetry_equiv_pos_as_xyz
  1  'x, y, z'
loop_
 _atom_site_type_symbol
 _atom_site_label
 _atom_site_symmetry_multiplicity
 _atom_site_fract_x
 _atom_site_fract_y
 _atom_site_fract_z
 _atom_site_occupancy
  Cs  Cs0  1  0.50000012  0.49999996  0.49999994  1.0
  K  K1  1  0.25000013  0.24999989  0.25000024  1.0
  K  K2  1  0.74999968  0.75000009  0.74999992  1.0
  N  N3  1  0.00000031  0.99999977  0.99999999  1.0
  F  F4  1  0.20175525  0.79824462  0.79824461  1.0
  F  F5  1  0.20175536  0.79824479  0.20175536  1.0
  F  F6  1  0.79824452  0.20175538  0.79824444  1.0
  F  F7  1  0.79824457  0.79824452  0.20175531  1.0
  F  F8  1  0.20175541  0.20175548  0.79824471  1.0
  F  F9  1  0.79824465  0.20175550  0.20175547  1.0
