# generated using pymatgen
data_CsNa2NF6
_symmetry_space_group_name_H-M   'P 1'
_cell_length_a   6.35402818
_cell_length_b   6.35402715
_cell_length_c   6.35402793
_cell_angle_alpha   59.99944907
_cell_angle_beta   59.99945451
_cell_angle_gamma   59.99944766
_symmetry_Int_Tables_number   1
_chemical_formula_structural   CsNa2NF6
_chemical_formula_sum   'Cs1 Na2 N1 F6'
_cell_volume   181.39566867
_cell_formula_units_Z   1
loop_
 _symmetry_equiv_pos_site_id
 _symmetry_equiv_pos_as_xyz
  1  'x, y, z'
loop_
 _atom_site_type_symbol
 _atom_site_label
 _atom_site_symmetry_multiplicity
 _atom_site_fract_x
 _atom_site_fract_y
 _atom_site_fract_z
 _atom_site_occupancy
  Cs  Cs0  1  0.49999990  0.50000006  0.49999997  1.0
  Na  Na1  1  0.25000035  0.25000034  0.25000032  1.0
  Na  Na2  1  0.74999969  0.74999963  0.74999970  1.0
  N  N3  1  0.99999999  0.00000016  0.00000001  1.0
  F  F4  1  0.20318358  0.79681688  0.79681708  1.0
  F  F5  1  0.20318285  0.79681647  0.20318303  1.0
  F  F6  1  0.79681691  0.20318354  0.79681696  1.0
  F  F7  1  0.79681719  0.79681702  0.20318340  1.0
  F  F8  1  0.20318302  0.20318304  0.79681653  1.0
  F  F9  1  0.79681652  0.20318286  0.20318300  1.0
