# generated using pymatgen
data_CsNO3
_symmetry_space_group_name_H-M   'P 1'
_cell_length_a   4.67482574
_cell_length_b   4.67482635
_cell_length_c   4.67482603
_cell_angle_alpha   80.25277871
_cell_angle_beta   80.25276240
_cell_angle_gamma   80.25276542
_symmetry_Int_Tables_number   1
_chemical_formula_structural   CsNO3
_chemical_formula_sum   'Cs1 N1 O3'
_cell_volume   98.18962743
_cell_formula_units_Z   1
loop_
 _symmetry_equiv_pos_site_id
 _symmetry_equiv_pos_as_xyz
  1  'x, y, z'
loop_
 _atom_site_type_symbol
 _atom_site_label
 _atom_site_symmetry_multiplicity
 _atom_site_fract_x
 _atom_site_fract_y
 _atom_site_fract_z
 _atom_site_occupancy
  Cs  Cs0  1  0.00230159  0.00230160  0.00230159  1.0
  N  N1  1  0.43375684  0.43375679  0.43375670  1.0
  O  O2  1  0.55439944  0.18914046  0.55439965  1.0
  O  O3  1  0.55439953  0.55439961  0.18914063  1.0
  O  O4  1  0.18914059  0.55439954  0.55439942  1.0
