# generated using pymatgen
data_CsRb2NF6
_symmetry_space_group_name_H-M   'P 1'
_cell_length_a   6.48406879
_cell_length_b   6.48406892
_cell_length_c   6.48406828
_cell_angle_alpha   59.99973326
_cell_angle_beta   59.99973484
_cell_angle_gamma   59.99974361
_symmetry_Int_Tables_number   1
_chemical_formula_structural   CsRb2NF6
_chemical_formula_sum   'Cs1 Rb2 N1 F6'
_cell_volume   192.76368962
_cell_formula_units_Z   1
loop_
 _symmetry_equiv_pos_site_id
 _symmetry_equiv_pos_as_xyz
  1  'x, y, z'
loop_
 _atom_site_type_symbol
 _atom_site_label
 _atom_site_symmetry_multiplicity
 _atom_site_fract_x
 _atom_site_fract_y
 _atom_site_fract_z
 _atom_site_occupancy
  Cs  Cs0  1  0.50000013  0.50000003  0.49999985  1.0
  Rb  Rb1  1  0.24999986  0.24999942  0.25000068  1.0
  Rb  Rb2  1  0.74999986  0.75000048  0.74999982  1.0
  N  N3  1  0.00000049  0.00000038  0.99999898  1.0
  F  F4  1  0.20068575  0.79931443  0.79931421  1.0
  F  F5  1  0.20068640  0.79931354  0.20068602  1.0
  F  F6  1  0.79931434  0.20068581  0.79931398  1.0
  F  F7  1  0.79931381  0.79931364  0.20068623  1.0
  F  F8  1  0.20068594  0.20068574  0.79931382  1.0
  F  F9  1  0.79931342  0.20068654  0.20068640  1.0
