# generated using pymatgen
data_CsSiBiO4
_symmetry_space_group_name_H-M   'P 1'
_cell_length_a   5.67001333
_cell_length_b   7.35462459
_cell_length_c   13.23066809
_cell_angle_alpha   90.00001050
_cell_angle_beta   89.99999089
_cell_angle_gamma   89.99999977
_symmetry_Int_Tables_number   1
_chemical_formula_structural   CsSiBiO4
_chemical_formula_sum   'Cs4 Si4 Bi4 O16'
_cell_volume   551.72970139
_cell_formula_units_Z   4
loop_
 _symmetry_equiv_pos_site_id
 _symmetry_equiv_pos_as_xyz
  1  'x, y, z'
loop_
 _atom_site_type_symbol
 _atom_site_label
 _atom_site_symmetry_multiplicity
 _atom_site_fract_x
 _atom_site_fract_y
 _atom_site_fract_z
 _atom_site_occupancy
  Cs  Cs0  1  0.24445786  0.96053531  0.15434375  1.0
  Cs  Cs1  1  0.74445795  0.46053505  0.34565623  1.0
  Cs  Cs2  1  0.24445789  0.53946495  0.65434373  1.0
  Cs  Cs3  1  0.74445795  0.03946470  0.84565622  1.0
  Si  Si4  1  0.74676697  0.73872346  0.05524860  1.0
  Si  Si5  1  0.24676696  0.23872337  0.44475145  1.0
  Si  Si6  1  0.74676694  0.76127660  0.55524856  1.0
  Si  Si7  1  0.24676697  0.26127657  0.94475141  1.0
  Bi  Bi8  1  0.73284685  0.28009773  0.10630243  1.0
  Bi  Bi9  1  0.23284677  0.78009761  0.39369749  1.0
  Bi  Bi10  1  0.73284682  0.21990240  0.60630250  1.0
  Bi  Bi11  1  0.23284681  0.71990225  0.89369755  1.0
  O  O12  1  0.07758223  0.28374770  0.04673200  1.0
  O  O13  1  0.02613050  0.70137966  0.02266565  1.0
  O  O14  1  0.68385441  0.58044817  0.13795849  1.0
  O  O15  1  0.73071921  0.94545244  0.09896108  1.0
  O  O16  1  0.23071922  0.44545237  0.40103904  1.0
  O  O17  1  0.18385445  0.08044812  0.36204150  1.0
  O  O18  1  0.52613048  0.20137959  0.47733435  1.0
  O  O19  1  0.57758210  0.78374748  0.45326804  1.0
  O  O20  1  0.07758215  0.21625237  0.54673204  1.0
  O  O21  1  0.02613046  0.79862034  0.52266559  1.0
  O  O22  1  0.68385445  0.91955192  0.63795846  1.0
  O  O23  1  0.73071923  0.55454764  0.59896103  1.0
  O  O24  1  0.23071922  0.05454754  0.90103899  1.0
  O  O25  1  0.18385440  0.41955179  0.86204147  1.0
  O  O26  1  0.52613052  0.29862044  0.97733428  1.0
  O  O27  1  0.57758219  0.71625242  0.95326807  1.0
