# generated using pymatgen
data_Cu2As2O7
_symmetry_space_group_name_H-M   'P 1'
_cell_length_a   4.93744037
_cell_length_b   5.56139517
_cell_length_c   5.56153128
_cell_angle_alpha   97.91000014
_cell_angle_beta   103.59134159
_cell_angle_gamma   103.59041910
_symmetry_Int_Tables_number   1
_chemical_formula_structural   Cu2As2O7
_chemical_formula_sum   'Cu2 As2 O7'
_cell_volume   141.24431926
_cell_formula_units_Z   1
loop_
 _symmetry_equiv_pos_site_id
 _symmetry_equiv_pos_as_xyz
  1  'x, y, z'
loop_
 _atom_site_type_symbol
 _atom_site_label
 _atom_site_symmetry_multiplicity
 _atom_site_fract_x
 _atom_site_fract_y
 _atom_site_fract_z
 _atom_site_occupancy
  Cu  Cu0  1  0.50000929  0.68828255  0.31168541  1.0
  Cu  Cu1  1  0.49998670  0.31170702  0.68832771  1.0
  As  As2  1  0.09397485  0.79205354  0.79203034  1.0
  As  As3  1  0.90602104  0.20795818  0.20795105  1.0
  O  O4  1  0.28456715  0.96022392  0.62248874  1.0
  O  O5  1  0.71543290  0.37753632  0.03979444  1.0
  O  O6  1  0.71544267  0.03975210  0.37751291  1.0
  O  O7  1  0.28456288  0.62246078  0.96022918  1.0
  O  O8  1  0.00000194  0.00003571  0.99996717  1.0
  O  O9  1  0.75727241  0.60036553  0.60037720  1.0
  O  O10  1  0.24272717  0.39962436  0.39963583  1.0
