# generated using pymatgen
data_CuSiBiO4
_symmetry_space_group_name_H-M   'P 1'
_cell_length_a   5.08457622
_cell_length_b   7.27999356
_cell_length_c   10.87126694
_cell_angle_alpha   90.00029482
_cell_angle_beta   90.00127954
_cell_angle_gamma   90.00087715
_symmetry_Int_Tables_number   1
_chemical_formula_structural   CuSiBiO4
_chemical_formula_sum   'Cu4 Si4 Bi4 O16'
_cell_volume   402.40736132
_cell_formula_units_Z   4
loop_
 _symmetry_equiv_pos_site_id
 _symmetry_equiv_pos_as_xyz
  1  'x, y, z'
loop_
 _atom_site_type_symbol
 _atom_site_label
 _atom_site_symmetry_multiplicity
 _atom_site_fract_x
 _atom_site_fract_y
 _atom_site_fract_z
 _atom_site_occupancy
  Cu  Cu0  1  0.23392372  0.99808252  0.16985417  1.0
  Cu  Cu1  1  0.73391947  0.49807368  0.33014927  1.0
  Cu  Cu2  1  0.23390636  0.50192103  0.66985776  1.0
  Cu  Cu3  1  0.73386837  0.00193263  0.83014343  1.0
  Si  Si4  1  0.75124720  0.76389619  0.08277903  1.0
  Si  Si5  1  0.25124052  0.26389495  0.41721957  1.0
  Si  Si6  1  0.75124050  0.73610472  0.58277945  1.0
  Si  Si7  1  0.25123157  0.23610107  0.91722089  1.0
  Bi  Bi8  1  0.72963065  0.25138364  0.12684047  1.0
  Bi  Bi9  1  0.22961715  0.75138047  0.37316166  1.0
  Bi  Bi10  1  0.72963014  0.24862396  0.62683606  1.0
  Bi  Bi11  1  0.22962199  0.74862069  0.87316223  1.0
  O  O12  1  0.13913803  0.23856630  0.06167170  1.0
  O  O13  1  0.07655723  0.78739570  0.06617280  1.0
  O  O14  1  0.67449871  0.57274829  0.15310368  1.0
  O  O15  1  0.63742419  0.94171965  0.15813350  1.0
  O  O16  1  0.13740640  0.44171850  0.34186639  1.0
  O  O17  1  0.17448624  0.07274310  0.34689464  1.0
  O  O18  1  0.57655412  0.28739705  0.43382528  1.0
  O  O19  1  0.63912641  0.73856277  0.43832505  1.0
  O  O20  1  0.13913969  0.26143174  0.56167222  1.0
  O  O21  1  0.07655819  0.71260131  0.56617111  1.0
  O  O22  1  0.67449682  0.92725752  0.65310186  1.0
  O  O23  1  0.63741227  0.55828106  0.65813380  1.0
  O  O24  1  0.13738626  0.05827954  0.84186907  1.0
  O  O25  1  0.17449221  0.42724839  0.84689668  1.0
  O  O26  1  0.57654116  0.21260021  0.93382921  1.0
  O  O27  1  0.63913641  0.76143332  0.93832901  1.0
