# generated using pymatgen
data_Dy2Si2O7
_symmetry_space_group_name_H-M   'P 1'
_cell_length_a   6.85849409
_cell_length_b   6.85849412
_cell_length_c   6.85849404
_cell_angle_alpha   59.99997798
_cell_angle_beta   59.99997786
_cell_angle_gamma   59.99997781
_symmetry_Int_Tables_number   1
_chemical_formula_structural   Dy2Si2O7
_chemical_formula_sum   'Dy4 Si4 O14'
_cell_volume   228.12405847
_cell_formula_units_Z   2
loop_
 _symmetry_equiv_pos_site_id
 _symmetry_equiv_pos_as_xyz
  1  'x, y, z'
loop_
 _atom_site_type_symbol
 _atom_site_label
 _atom_site_symmetry_multiplicity
 _atom_site_fract_x
 _atom_site_fract_y
 _atom_site_fract_z
 _atom_site_occupancy
  Dy  Dy0  1  0.62500000  0.62500000  0.62500000  1.0
  Dy  Dy1  1  0.12500000  0.62500000  0.62500000  1.0
  Dy  Dy2  1  0.62500000  0.12500000  0.62500000  1.0
  Dy  Dy3  1  0.62500000  0.62500000  0.12500000  1.0
  Si  Si4  1  0.12500000  0.62500000  0.12500000  1.0
  Si  Si5  1  0.12500000  0.12500000  0.62500000  1.0
  Si  Si6  1  0.62500000  0.12500000  0.12500000  1.0
  Si  Si7  1  0.12500000  0.12500000  0.12500000  1.0
  O  O8  1  0.74999998  0.74999997  0.74999998  1.0
  O  O9  1  0.19527797  0.80472206  0.80472206  1.0
  O  O10  1  0.19527796  0.80472204  0.19527796  1.0
  O  O11  1  0.80472206  0.80472206  0.19527797  1.0
  O  O12  1  0.80472206  0.19527797  0.80472206  1.0
  O  O13  1  0.19527796  0.19527796  0.80472203  1.0
  O  O14  1  0.44527796  0.05472204  0.05472204  1.0
  O  O15  1  0.80472204  0.19527796  0.19527796  1.0
  O  O16  1  0.05472204  0.44527796  0.05472204  1.0
  O  O17  1  0.05472203  0.05472204  0.44527797  1.0
  O  O18  1  0.44527794  0.44527794  0.05472203  1.0
  O  O19  1  0.44527794  0.05472203  0.44527794  1.0
  O  O20  1  0.05472203  0.44527794  0.44527794  1.0
  O  O21  1  0.50000002  0.50000003  0.50000002  1.0
