# generated using pymatgen
data_Dy2SeO2
_symmetry_space_group_name_H-M   'P 1'
_cell_length_a   3.84695008
_cell_length_b   3.84695004
_cell_length_c   6.83273941
_cell_angle_alpha   90.00000567
_cell_angle_beta   89.99999337
_cell_angle_gamma   120.00002505
_symmetry_Int_Tables_number   1
_chemical_formula_structural   Dy2SeO2
_chemical_formula_sum   'Dy2 Se1 O2'
_cell_volume   87.57063052
_cell_formula_units_Z   1
loop_
 _symmetry_equiv_pos_site_id
 _symmetry_equiv_pos_as_xyz
  1  'x, y, z'
loop_
 _atom_site_type_symbol
 _atom_site_label
 _atom_site_symmetry_multiplicity
 _atom_site_fract_x
 _atom_site_fract_y
 _atom_site_fract_z
 _atom_site_occupancy
  Dy  Dy0  1  0.66666667  0.33333333  0.70884559  1.0
  Dy  Dy1  1  0.33333333  0.66666667  0.29115440  1.0
  Se  Se2  1  0.99999999  0.99999997  0.00000000  1.0
  O  O3  1  0.66666667  0.33333333  0.37430665  1.0
  O  O4  1  0.33333333  0.66666667  0.62569335  1.0
