# generated using pymatgen
data_Dy2TeO6
_symmetry_space_group_name_H-M   'P 1'
_cell_length_a   9.14888373
_cell_length_b   9.14884420
_cell_length_c   5.22022011
_cell_angle_alpha   90.00006439
_cell_angle_beta   89.99969356
_cell_angle_gamma   120.00003201
_symmetry_Int_Tables_number   1
_chemical_formula_structural   Dy2TeO6
_chemical_formula_sum   'Dy6 Te3 O18'
_cell_volume   378.40219518
_cell_formula_units_Z   3
loop_
 _symmetry_equiv_pos_site_id
 _symmetry_equiv_pos_as_xyz
  1  'x, y, z'
loop_
 _atom_site_type_symbol
 _atom_site_label
 _atom_site_symmetry_multiplicity
 _atom_site_fract_x
 _atom_site_fract_y
 _atom_site_fract_z
 _atom_site_occupancy
  Dy  Dy0  1  0.99999780  0.61880585  0.99999852  1.0
  Dy  Dy1  1  0.28197174  0.99999429  0.49999895  1.0
  Dy  Dy2  1  0.99999878  0.28197484  0.50000700  1.0
  Dy  Dy3  1  0.61880993  0.00000152  0.99999913  1.0
  Dy  Dy4  1  0.38119213  0.38119327  0.99999989  1.0
  Dy  Dy5  1  0.71802940  0.71802835  0.50000586  1.0
  Te  Te6  1  0.33333333  0.66666667  0.49734656  1.0
  Te  Te7  1  0.66666667  0.33333333  0.50264688  1.0
  Te  Te8  1  0.00000143  0.99999962  0.00000490  1.0
  O  O9  1  0.07756329  0.87721447  0.78845310  1.0
  O  O10  1  0.20034685  0.12278648  0.21156039  1.0
  O  O11  1  0.22686443  0.76282241  0.28239439  1.0
  O  O12  1  0.46402871  0.23717298  0.71759692  1.0
  O  O13  1  0.13266813  0.54419342  0.71096540  1.0
  O  O14  1  0.58846829  0.45581086  0.28903621  1.0
  O  O15  1  0.54418454  0.13266213  0.28902489  1.0
  O  O16  1  0.41153379  0.86734058  0.71095912  1.0
  O  O17  1  0.23718010  0.46403262  0.28240776  1.0
  O  O18  1  0.77313453  0.53596011  0.71760091  1.0
  O  O19  1  0.12279030  0.20035264  0.78845652  1.0
  O  O20  1  0.92243527  0.79964975  0.21154980  1.0
  O  O21  1  0.53597020  0.77314158  0.28239678  1.0
  O  O22  1  0.76281662  0.22685469  0.71759151  1.0
  O  O23  1  0.45581499  0.58847694  0.71097100  1.0
  O  O24  1  0.86733081  0.41152342  0.28903260  1.0
  O  O25  1  0.87721384  0.07756272  0.21155405  1.0
  O  O26  1  0.79965884  0.92244726  0.78844394  1.0
