# generated using pymatgen
data_Dy3Si6N11
_symmetry_space_group_name_H-M   'P 1'
_cell_length_a   9.95182217
_cell_length_b   9.95182231
_cell_length_c   4.88547673
_cell_angle_alpha   89.99999994
_cell_angle_beta   89.99999977
_cell_angle_gamma   90.00000000
_symmetry_Int_Tables_number   1
_chemical_formula_structural   Dy3Si6N11
_chemical_formula_sum   'Dy6 Si12 N22'
_cell_volume   483.85158616
_cell_formula_units_Z   2
loop_
 _symmetry_equiv_pos_site_id
 _symmetry_equiv_pos_as_xyz
  1  'x, y, z'
loop_
 _atom_site_type_symbol
 _atom_site_label
 _atom_site_symmetry_multiplicity
 _atom_site_fract_x
 _atom_site_fract_y
 _atom_site_fract_z
 _atom_site_occupancy
  Dy  Dy0  1  0.49999998  0.49999994  0.33640934  1.0
  Dy  Dy1  1  0.00000002  0.00000002  0.33640927  1.0
  Dy  Dy2  1  0.68319055  0.18319064  0.34649733  1.0
  Dy  Dy3  1  0.18319061  0.31680934  0.34649739  1.0
  Dy  Dy4  1  0.81680947  0.68319054  0.34649736  1.0
  Dy  Dy5  1  0.31680940  0.81680944  0.34649731  1.0
  Si  Si6  1  0.11913045  0.61913043  0.40814345  1.0
  Si  Si7  1  0.61913018  0.88086982  0.40814353  1.0
  Si  Si8  1  0.38086926  0.11913074  0.40814339  1.0
  Si  Si9  1  0.88086952  0.38086951  0.40814345  1.0
  Si  Si10  1  0.57988102  0.70811816  0.89498183  1.0
  Si  Si11  1  0.42011888  0.29188171  0.89498168  1.0
  Si  Si12  1  0.29188176  0.57988098  0.89498175  1.0
  Si  Si13  1  0.70811823  0.42011886  0.89498174  1.0
  Si  Si14  1  0.79188183  0.92011900  0.89498182  1.0
  Si  Si15  1  0.92011900  0.20811825  0.89498174  1.0
  Si  Si16  1  0.07988114  0.79188179  0.89498173  1.0
  Si  Si17  1  0.20811829  0.07988114  0.89498168  1.0
  N  N18  1  0.50000051  0.99999948  0.43891853  1.0
  N  N19  1  0.00000004  0.50000005  0.43891853  1.0
  N  N20  1  0.42072931  0.68132663  0.01826521  1.0
  N  N21  1  0.57927085  0.31867345  0.01826528  1.0
  N  N22  1  0.31867337  0.42072931  0.01826524  1.0
  N  N23  1  0.68132660  0.57927086  0.01826529  1.0
  N  N24  1  0.81867336  0.07927067  0.01826524  1.0
  N  N25  1  0.07927071  0.18132662  0.01826527  1.0
  N  N26  1  0.92072916  0.81867340  0.01826525  1.0
  N  N27  1  0.18132656  0.92072913  0.01826526  1.0
  N  N28  1  0.84739204  0.34739206  0.05980486  1.0
  N  N29  1  0.34739205  0.15260794  0.05980484  1.0
  N  N30  1  0.65260794  0.84739206  0.05980485  1.0
  N  N31  1  0.15260794  0.65260797  0.05980484  1.0
  N  N32  1  0.22263511  0.07968088  0.54054373  1.0
  N  N33  1  0.07968085  0.77736487  0.54054371  1.0
  N  N34  1  0.92031912  0.22263513  0.54054372  1.0
  N  N35  1  0.77736488  0.92031911  0.54054372  1.0
  N  N36  1  0.72263512  0.42031915  0.54054372  1.0
  N  N37  1  0.27736488  0.57968089  0.54054371  1.0
  N  N38  1  0.42031914  0.27736488  0.54054372  1.0
  N  N39  1  0.57968088  0.72263513  0.54054373  1.0
