# generated using pymatgen
data_DyErO3
_symmetry_space_group_name_H-M   'P 1'
_cell_length_a   6.39331002
_cell_length_b   6.39331049
_cell_length_c   12.67038521
_cell_angle_alpha   89.99999837
_cell_angle_beta   89.99999874
_cell_angle_gamma   120.00004696
_symmetry_Int_Tables_number   1
_chemical_formula_structural   DyErO3
_chemical_formula_sum   'Dy6 Er6 O18'
_cell_volume   448.50966453
_cell_formula_units_Z   6
loop_
 _symmetry_equiv_pos_site_id
 _symmetry_equiv_pos_as_xyz
  1  'x, y, z'
loop_
 _atom_site_type_symbol
 _atom_site_label
 _atom_site_symmetry_multiplicity
 _atom_site_fract_x
 _atom_site_fract_y
 _atom_site_fract_z
 _atom_site_occupancy
  Dy  Dy0  1  0.99999995  0.66714206  0.50106168  1.0
  Dy  Dy1  1  0.00000015  0.33285807  0.00106164  1.0
  Dy  Dy2  1  0.33285797  0.33285802  0.50106169  1.0
  Dy  Dy3  1  0.66714224  0.66714210  0.00106164  1.0
  Dy  Dy4  1  0.33285803  0.99999999  0.00106170  1.0
  Dy  Dy5  1  0.66714202  0.00000002  0.50106168  1.0
  Er  Er6  1  0.33333333  0.66666667  0.23625097  1.0
  Er  Er7  1  0.00000005  0.00000002  0.26857075  1.0
  Er  Er8  1  0.99999983  0.99999998  0.76857079  1.0
  Er  Er9  1  0.33333333  0.66666667  0.73625094  1.0
  Er  Er10  1  0.66666667  0.33333333  0.73625102  1.0
  Er  Er11  1  0.66666667  0.33333333  0.23625100  1.0
  O  O12  1  0.99999998  0.69858245  0.67640640  1.0
  O  O13  1  0.99999990  0.62890363  0.32811347  1.0
  O  O14  1  0.99999976  0.37109618  0.82811346  1.0
  O  O15  1  0.99999990  0.30141760  0.17640636  1.0
  O  O16  1  0.33333333  0.66666667  0.03403568  1.0
  O  O17  1  0.99999980  0.99999994  0.46172625  1.0
  O  O18  1  0.00000039  0.00000028  0.96172620  1.0
  O  O19  1  0.33333333  0.66666667  0.53403572  1.0
  O  O20  1  0.30141769  0.30141763  0.67640645  1.0
  O  O21  1  0.37109598  0.37109604  0.32811343  1.0
  O  O22  1  0.30141759  0.99999958  0.17640642  1.0
  O  O23  1  0.62890368  0.62890384  0.82811344  1.0
  O  O24  1  0.69858221  0.69858226  0.17640644  1.0
  O  O25  1  0.37109655  0.99999975  0.82811355  1.0
  O  O26  1  0.66666667  0.33333333  0.53403570  1.0
  O  O27  1  0.66666667  0.33333333  0.03403570  1.0
  O  O28  1  0.62890368  0.00000010  0.32811346  1.0
  O  O29  1  0.69858242  0.00000032  0.67640638  1.0
