# generated using pymatgen
data_DyHoO3
_symmetry_space_group_name_H-M   'P 1'
_cell_length_a   6.41329664
_cell_length_b   6.41329704
_cell_length_c   12.69523988
_cell_angle_alpha   90.00000349
_cell_angle_beta   89.99999618
_cell_angle_gamma   120.00005637
_symmetry_Int_Tables_number   1
_chemical_formula_structural   DyHoO3
_chemical_formula_sum   'Dy6 Ho6 O18'
_cell_volume   452.20356297
_cell_formula_units_Z   6
loop_
 _symmetry_equiv_pos_site_id
 _symmetry_equiv_pos_as_xyz
  1  'x, y, z'
loop_
 _atom_site_type_symbol
 _atom_site_label
 _atom_site_symmetry_multiplicity
 _atom_site_fract_x
 _atom_site_fract_y
 _atom_site_fract_z
 _atom_site_occupancy
  Dy  Dy0  1  0.00000006  0.66714812  0.50117366  1.0
  Dy  Dy1  1  0.99999995  0.33285185  0.00117339  1.0
  Dy  Dy2  1  0.33285202  0.33285202  0.50117362  1.0
  Dy  Dy3  1  0.66714815  0.66714813  0.00117345  1.0
  Dy  Dy4  1  0.33285179  0.99999996  0.00117341  1.0
  Dy  Dy5  1  0.66714806  0.00000003  0.50117366  1.0
  Ho  Ho6  1  0.33333333  0.66666667  0.23645715  1.0
  Ho  Ho7  1  0.00000013  0.00000010  0.26879811  1.0
  Ho  Ho8  1  0.99999995  0.99999999  0.76879809  1.0
  Ho  Ho9  1  0.33333333  0.66666667  0.73645713  1.0
  Ho  Ho10  1  0.66666667  0.33333333  0.73645713  1.0
  Ho  Ho11  1  0.66666667  0.33333333  0.23645716  1.0
  O  O12  1  0.00000028  0.69747590  0.67615560  1.0
  O  O13  1  0.00000019  0.63067738  0.32835820  1.0
  O  O14  1  0.99999988  0.36932245  0.82835826  1.0
  O  O15  1  0.99999969  0.30252415  0.17615566  1.0
  O  O16  1  0.33333333  0.66666667  0.03284145  1.0
  O  O17  1  0.99999982  0.99999985  0.46315750  1.0
  O  O18  1  0.00000019  0.00000019  0.96315759  1.0
  O  O19  1  0.33333333  0.66666667  0.53284140  1.0
  O  O20  1  0.30252420  0.30252420  0.67615560  1.0
  O  O21  1  0.36932237  0.36932236  0.32835813  1.0
  O  O22  1  0.30252429  0.99999982  0.17615567  1.0
  O  O23  1  0.63067750  0.63067750  0.82835832  1.0
  O  O24  1  0.69747581  0.69747575  0.17615570  1.0
  O  O25  1  0.36932242  0.99999995  0.82835831  1.0
  O  O26  1  0.66666667  0.33333333  0.53284140  1.0
  O  O27  1  0.66666667  0.33333333  0.03284143  1.0
  O  O28  1  0.63067752  0.00000016  0.32835818  1.0
  O  O29  1  0.69747581  0.00000016  0.67615563  1.0
