# generated using pymatgen
data_DySeClO3
_symmetry_space_group_name_H-M   'P 1'
_cell_length_a   7.01993732
_cell_length_b   7.41177337
_cell_length_c   8.84067918
_cell_angle_alpha   90.00000361
_cell_angle_beta   90.00000210
_cell_angle_gamma   90.00000158
_symmetry_Int_Tables_number   1
_chemical_formula_structural   DySeClO3
_chemical_formula_sum   'Dy4 Se4 Cl4 O12'
_cell_volume   459.98216873
_cell_formula_units_Z   4
loop_
 _symmetry_equiv_pos_site_id
 _symmetry_equiv_pos_as_xyz
  1  'x, y, z'
loop_
 _atom_site_type_symbol
 _atom_site_label
 _atom_site_symmetry_multiplicity
 _atom_site_fract_x
 _atom_site_fract_y
 _atom_site_fract_z
 _atom_site_occupancy
  Dy  Dy0  1  0.25000000  0.10220419  0.54005174  1.0
  Dy  Dy1  1  0.75000000  0.39779577  0.04005166  1.0
  Dy  Dy2  1  0.75000000  0.89779580  0.45994825  1.0
  Dy  Dy3  1  0.25000001  0.60220423  0.95994833  1.0
  Se  Se4  1  0.74999998  0.28722555  0.63216352  1.0
  Se  Se5  1  0.74999995  0.78722542  0.86783611  1.0
  Se  Se6  1  0.25000007  0.21277450  0.13216389  1.0
  Se  Se7  1  0.24999994  0.71277440  0.36783647  1.0
  Cl  Cl8  1  0.75000003  0.56655488  0.31589047  1.0
  Cl  Cl9  1  0.25000004  0.93344504  0.81589054  1.0
  Cl  Cl10  1  0.74999996  0.06655494  0.18410947  1.0
  Cl  Cl11  1  0.24999997  0.43344515  0.68410954  1.0
  O  O12  1  0.92744042  0.63878381  0.93126546  1.0
  O  O13  1  0.92744045  0.13878374  0.56873461  1.0
  O  O14  1  0.75000004  0.75091781  0.67819955  1.0
  O  O15  1  0.57255959  0.13878383  0.56873448  1.0
  O  O16  1  0.74999994  0.25091770  0.82180065  1.0
  O  O17  1  0.42744046  0.36121631  0.06873467  1.0
  O  O18  1  0.07255957  0.36121621  0.06873453  1.0
  O  O19  1  0.07255952  0.86121627  0.43126539  1.0
  O  O20  1  0.42744044  0.86121621  0.43126553  1.0
  O  O21  1  0.24999995  0.24908219  0.32180051  1.0
  O  O22  1  0.25000005  0.74908230  0.17819932  1.0
  O  O23  1  0.57255962  0.63878374  0.93126532  1.0
