# generated using pymatgen
data_DyTaO4
_symmetry_space_group_name_H-M   'P 1'
_cell_length_a   6.16073464
_cell_length_b   6.16070608
_cell_length_c   6.16076925
_cell_angle_alpha   107.18612360
_cell_angle_beta   107.18276920
_cell_angle_gamma   114.14847022
_symmetry_Int_Tables_number   1
_chemical_formula_structural   DyTaO4
_chemical_formula_sum   'Dy2 Ta2 O8'
_cell_volume   179.09423409
_cell_formula_units_Z   2
loop_
 _symmetry_equiv_pos_site_id
 _symmetry_equiv_pos_as_xyz
  1  'x, y, z'
loop_
 _atom_site_type_symbol
 _atom_site_label
 _atom_site_symmetry_multiplicity
 _atom_site_fract_x
 _atom_site_fract_y
 _atom_site_fract_z
 _atom_site_occupancy
  Dy  Dy0  1  0.87500202  0.12500116  0.74999934  1.0
  Dy  Dy1  1  0.12499740  0.87499806  0.24999993  1.0
  Ta  Ta2  1  0.62502147  0.37502467  0.25000174  1.0
  Ta  Ta3  1  0.37497934  0.62497666  0.74999623  1.0
  O  O4  1  0.80633939  0.74920543  0.44286051  1.0
  O  O5  1  0.80634636  0.36347769  0.05713556  1.0
  O  O6  1  0.25077400  0.19364914  0.05712951  1.0
  O  O7  1  0.19365311  0.63652241  0.94286413  1.0
  O  O8  1  0.19366006  0.25079354  0.55713898  1.0
  O  O9  1  0.63652101  0.19364397  0.44287098  1.0
  O  O10  1  0.74922571  0.80635053  0.94287005  1.0
  O  O11  1  0.36347912  0.80635474  0.55712903  1.0
