# generated using pymatgen
data_Er2SnO5
_symmetry_space_group_name_H-M   'P 1'
_cell_length_a   5.93130950
_cell_length_b   5.93130995
_cell_length_c   10.81538728
_cell_angle_alpha   90.00000602
_cell_angle_beta   89.99999639
_cell_angle_gamma   139.33422984
_symmetry_Int_Tables_number   1
_chemical_formula_structural   Er2SnO5
_chemical_formula_sum   'Er4 Sn2 O10'
_cell_volume   247.94456255
_cell_formula_units_Z   2
loop_
 _symmetry_equiv_pos_site_id
 _symmetry_equiv_pos_as_xyz
  1  'x, y, z'
loop_
 _atom_site_type_symbol
 _atom_site_label
 _atom_site_symmetry_multiplicity
 _atom_site_fract_x
 _atom_site_fract_y
 _atom_site_fract_z
 _atom_site_occupancy
  Er  Er0  1  0.14034196  0.85965809  0.93268946  1.0
  Er  Er1  1  0.14034194  0.85965817  0.56731058  1.0
  Er  Er2  1  0.85965840  0.14034224  0.06731057  1.0
  Er  Er3  1  0.85965815  0.14034182  0.43268942  1.0
  Sn  Sn4  1  0.17484676  0.82515346  0.24999998  1.0
  Sn  Sn5  1  0.82515341  0.17484669  0.75000002  1.0
  O  O6  1  0.04730615  0.95269414  0.38420455  1.0
  O  O7  1  0.04730582  0.95269385  0.11579549  1.0
  O  O8  1  0.70816966  0.29183006  0.91052294  1.0
  O  O9  1  0.70816947  0.29183001  0.58947713  1.0
  O  O10  1  0.26393308  0.73606648  0.74999997  1.0
  O  O11  1  0.73606654  0.26393348  0.24999998  1.0
  O  O12  1  0.29183023  0.70816973  0.08947716  1.0
  O  O13  1  0.29183038  0.70816974  0.41052284  1.0
  O  O14  1  0.95269402  0.04730605  0.61579542  1.0
  O  O15  1  0.95269401  0.04730598  0.88420450  1.0
