# generated using pymatgen
data_Er2ZrO5
_symmetry_space_group_name_H-M   'P 1'
_cell_length_a   5.93143676
_cell_length_b   5.93143712
_cell_length_c   10.87938987
_cell_angle_alpha   90.00000116
_cell_angle_beta   89.99999939
_cell_angle_gamma   139.50944463
_symmetry_Int_Tables_number   1
_chemical_formula_structural   Er2ZrO5
_chemical_formula_sum   'Er4 Zr2 O10'
_cell_volume   248.53351233
_cell_formula_units_Z   2
loop_
 _symmetry_equiv_pos_site_id
 _symmetry_equiv_pos_as_xyz
  1  'x, y, z'
loop_
 _atom_site_type_symbol
 _atom_site_label
 _atom_site_symmetry_multiplicity
 _atom_site_fract_x
 _atom_site_fract_y
 _atom_site_fract_z
 _atom_site_occupancy
  Er  Er0  1  0.14041347  0.85958645  0.93514358  1.0
  Er  Er1  1  0.14041343  0.85958643  0.56485643  1.0
  Er  Er2  1  0.85958655  0.14041356  0.06485642  1.0
  Er  Er3  1  0.85958651  0.14041353  0.43514358  1.0
  Zr  Zr4  1  0.17716926  0.82283072  0.25000001  1.0
  Zr  Zr5  1  0.82283075  0.17716930  0.74999999  1.0
  O  O6  1  0.04779181  0.95220824  0.38177684  1.0
  O  O7  1  0.04779179  0.95220822  0.11822315  1.0
  O  O8  1  0.70742892  0.29257105  0.91578987  1.0
  O  O9  1  0.70742891  0.29257106  0.58421013  1.0
  O  O10  1  0.26008319  0.73991677  0.75000000  1.0
  O  O11  1  0.73991683  0.26008321  0.24999999  1.0
  O  O12  1  0.29257110  0.70742896  0.08421013  1.0
  O  O13  1  0.29257106  0.70742894  0.41578987  1.0
  O  O14  1  0.95220819  0.04779178  0.61822315  1.0
  O  O15  1  0.95220823  0.04779179  0.88177685  1.0
