# generated using pymatgen
data_Er2Zr2O7
_symmetry_space_group_name_H-M   'P 1'
_cell_length_a   7.42065022
_cell_length_b   7.42065955
_cell_length_c   7.42067676
_cell_angle_alpha   60.00010326
_cell_angle_beta   60.00008055
_cell_angle_gamma   60.00001275
_symmetry_Int_Tables_number   1
_chemical_formula_structural   Er2Zr2O7
_chemical_formula_sum   'Er4 Zr4 O14'
_cell_volume   288.94396634
_cell_formula_units_Z   2
loop_
 _symmetry_equiv_pos_site_id
 _symmetry_equiv_pos_as_xyz
  1  'x, y, z'
loop_
 _atom_site_type_symbol
 _atom_site_label
 _atom_site_symmetry_multiplicity
 _atom_site_fract_x
 _atom_site_fract_y
 _atom_site_fract_z
 _atom_site_occupancy
  Er  Er0  1  0.62500029  0.62500213  0.12500130  1.0
  Er  Er1  1  0.62500165  0.62500107  0.62499711  1.0
  Er  Er2  1  0.12499940  0.62500002  0.62500005  1.0
  Er  Er3  1  0.62500039  0.12499900  0.62500120  1.0
  Zr  Zr4  1  0.12500087  0.12499754  0.12499991  1.0
  Zr  Zr5  1  0.62500195  0.12499213  0.12500293  1.0
  Zr  Zr6  1  0.12500083  0.12500105  0.62499770  1.0
  Zr  Zr7  1  0.12499254  0.62500409  0.12500346  1.0
  O  O8  1  0.03326956  0.46673087  0.03326880  1.0
  O  O9  1  0.21673175  0.78327067  0.78326638  1.0
  O  O10  1  0.21673199  0.78326798  0.21673001  1.0
  O  O11  1  0.03326860  0.03326878  0.46673405  1.0
  O  O12  1  0.78327115  0.78327162  0.21672811  1.0
  O  O13  1  0.78326812  0.21673207  0.21673014  1.0
  O  O14  1  0.46673054  0.03326999  0.03326978  1.0
  O  O15  1  0.46672822  0.03326902  0.46673453  1.0
  O  O16  1  0.21673180  0.21673095  0.78326493  1.0
  O  O17  1  0.74999969  0.74999927  0.75000029  1.0
  O  O18  1  0.03326938  0.46672738  0.46673431  1.0
  O  O19  1  0.46673121  0.46673225  0.03326858  1.0
  O  O20  1  0.78327044  0.21673291  0.78326505  1.0
  O  O21  1  0.49999963  0.49999921  0.50000137  1.0
