# generated using pymatgen
data_ErCrO3
_symmetry_space_group_name_H-M   'P 1'
_cell_length_a   3.83351350
_cell_length_b   3.83351379
_cell_length_c   3.83351252
_cell_angle_alpha   89.99997011
_cell_angle_beta   90.00004304
_cell_angle_gamma   90.00001734
_symmetry_Int_Tables_number   1
_chemical_formula_structural   ErCrO3
_chemical_formula_sum   'Er1 Cr1 O3'
_cell_volume   56.33663628
_cell_formula_units_Z   1
loop_
 _symmetry_equiv_pos_site_id
 _symmetry_equiv_pos_as_xyz
  1  'x, y, z'
loop_
 _atom_site_type_symbol
 _atom_site_label
 _atom_site_symmetry_multiplicity
 _atom_site_fract_x
 _atom_site_fract_y
 _atom_site_fract_z
 _atom_site_occupancy
  Er  Er0  1  0.99999999  0.99999998  0.00000002  1.0
  Cr  Cr1  1  0.49999993  0.49999999  0.50000000  1.0
  O  O2  1  0.50000008  0.49999989  0.00000002  1.0
  O  O3  1  0.49999997  0.00000003  0.49999990  1.0
  O  O4  1  0.00000003  0.50000010  0.50000007  1.0
