# generated using pymatgen
data_ErInO3
_symmetry_space_group_name_H-M   'P 1'
_cell_length_a   4.09376807
_cell_length_b   4.09376514
_cell_length_c   4.09376576
_cell_angle_alpha   89.99999356
_cell_angle_beta   90.00000868
_cell_angle_gamma   90.00000672
_symmetry_Int_Tables_number   1
_chemical_formula_structural   ErInO3
_chemical_formula_sum   'Er1 In1 O3'
_cell_volume   68.60711341
_cell_formula_units_Z   1
loop_
 _symmetry_equiv_pos_site_id
 _symmetry_equiv_pos_as_xyz
  1  'x, y, z'
loop_
 _atom_site_type_symbol
 _atom_site_label
 _atom_site_symmetry_multiplicity
 _atom_site_fract_x
 _atom_site_fract_y
 _atom_site_fract_z
 _atom_site_occupancy
  Er  Er0  1  0.00000000  0.00000000  0.00000005  1.0
  In  In1  1  0.50000009  0.49999986  0.50000011  1.0
  O  O2  1  0.49999997  0.49999985  0.99999991  1.0
  O  O3  1  0.50000002  0.00000014  0.50000001  1.0
  O  O4  1  0.99999992  0.50000015  0.49999992  1.0
