# generated using pymatgen
data_ErScO3
_symmetry_space_group_name_H-M   'P 1'
_cell_length_a   3.99402322
_cell_length_b   3.99402203
_cell_length_c   3.99401750
_cell_angle_alpha   89.99999139
_cell_angle_beta   90.00000746
_cell_angle_gamma   89.99998422
_symmetry_Int_Tables_number   1
_chemical_formula_structural   ErScO3
_chemical_formula_sum   'Er1 Sc1 O3'
_cell_volume   63.71343278
_cell_formula_units_Z   1
loop_
 _symmetry_equiv_pos_site_id
 _symmetry_equiv_pos_as_xyz
  1  'x, y, z'
loop_
 _atom_site_type_symbol
 _atom_site_label
 _atom_site_symmetry_multiplicity
 _atom_site_fract_x
 _atom_site_fract_y
 _atom_site_fract_z
 _atom_site_occupancy
  Er  Er0  1  0.00000046  0.99999933  0.00000013  1.0
  Sc  Sc1  1  0.49999980  0.49999984  0.50000035  1.0
  O  O2  1  0.49999981  0.50000011  0.99999985  1.0
  O  O3  1  0.50000005  0.00000048  0.49999988  1.0
  O  O4  1  0.99999987  0.50000025  0.49999980  1.0
