# generated using pymatgen
data_ErSeClO3
_symmetry_space_group_name_H-M   'P 1'
_cell_length_a   6.95278575
_cell_length_b   7.36962532
_cell_length_c   8.77291384
_cell_angle_alpha   90.00076174
_cell_angle_beta   89.99981132
_cell_angle_gamma   90.00012401
_symmetry_Int_Tables_number   1
_chemical_formula_structural   ErSeClO3
_chemical_formula_sum   'Er4 Se4 Cl4 O12'
_cell_volume   449.51906866
_cell_formula_units_Z   4
loop_
 _symmetry_equiv_pos_site_id
 _symmetry_equiv_pos_as_xyz
  1  'x, y, z'
loop_
 _atom_site_type_symbol
 _atom_site_label
 _atom_site_symmetry_multiplicity
 _atom_site_fract_x
 _atom_site_fract_y
 _atom_site_fract_z
 _atom_site_occupancy
  Er  Er0  1  0.24999943  0.09991647  0.54004921  1.0
  Er  Er1  1  0.74999889  0.40008037  0.04004975  1.0
  Er  Er2  1  0.75000068  0.90008288  0.45995110  1.0
  Er  Er3  1  0.25000115  0.59991902  0.95995004  1.0
  Se  Se4  1  0.75000222  0.28809437  0.63297251  1.0
  Se  Se5  1  0.74999740  0.78809430  0.86700805  1.0
  Se  Se6  1  0.25000513  0.21190613  0.13298733  1.0
  Se  Se7  1  0.24999798  0.71190910  0.36703001  1.0
  Cl  Cl8  1  0.74999954  0.56948878  0.31476394  1.0
  Cl  Cl9  1  0.24999983  0.93051074  0.81476595  1.0
  Cl  Cl10  1  0.74999987  0.06948942  0.18523396  1.0
  Cl  Cl11  1  0.25000016  0.43051186  0.68523554  1.0
  O  O12  1  0.92824812  0.63796546  0.93098366  1.0
  O  O13  1  0.92824383  0.13796942  0.56901784  1.0
  O  O14  1  0.75000018  0.75156141  0.67601235  1.0
  O  O15  1  0.57175394  0.13796791  0.56901709  1.0
  O  O16  1  0.74999987  0.25155877  0.82400375  1.0
  O  O17  1  0.42824329  0.36203098  0.06901770  1.0
  O  O18  1  0.07175148  0.36203490  0.06901676  1.0
  O  O19  1  0.07175849  0.86202889  0.43098112  1.0
  O  O20  1  0.42824362  0.86203042  0.43098223  1.0
  O  O21  1  0.24999981  0.24843908  0.32399143  1.0
  O  O22  1  0.25000041  0.74844131  0.17599554  1.0
  O  O23  1  0.57175468  0.63796800  0.93098317  1.0
