# generated using pymatgen
data_ErVO3
_symmetry_space_group_name_H-M   'P 1'
_cell_length_a   3.86483352
_cell_length_b   3.86466420
_cell_length_c   3.86466394
_cell_angle_alpha   89.99935626
_cell_angle_beta   90.00289152
_cell_angle_gamma   90.00121419
_symmetry_Int_Tables_number   1
_chemical_formula_structural   ErVO3
_chemical_formula_sum   'Er1 V1 O3'
_cell_volume   57.72371709
_cell_formula_units_Z   1
loop_
 _symmetry_equiv_pos_site_id
 _symmetry_equiv_pos_as_xyz
  1  'x, y, z'
loop_
 _atom_site_type_symbol
 _atom_site_label
 _atom_site_symmetry_multiplicity
 _atom_site_fract_x
 _atom_site_fract_y
 _atom_site_fract_z
 _atom_site_occupancy
  Er  Er0  1  0.00000010  0.99999988  0.00000008  1.0
  V  V1  1  0.50000007  0.50000035  0.49999989  1.0
  O  O2  1  0.50000002  0.49999977  0.00000010  1.0
  O  O3  1  0.49999984  0.99999979  0.49999963  1.0
  O  O4  1  0.99999997  0.50000020  0.50000030  1.0
