# generated using pymatgen
data_Fe2Ge2O7
_symmetry_space_group_name_H-M   'P 1'
_cell_length_a   6.78859327
_cell_length_b   6.78859385
_cell_length_c   6.78859320
_cell_angle_alpha   59.99988920
_cell_angle_beta   59.99989214
_cell_angle_gamma   59.99988531
_symmetry_Int_Tables_number   1
_chemical_formula_structural   Fe2Ge2O7
_chemical_formula_sum   'Fe4 Ge4 O14'
_cell_volume   221.21945009
_cell_formula_units_Z   2
loop_
 _symmetry_equiv_pos_site_id
 _symmetry_equiv_pos_as_xyz
  1  'x, y, z'
loop_
 _atom_site_type_symbol
 _atom_site_label
 _atom_site_symmetry_multiplicity
 _atom_site_fract_x
 _atom_site_fract_y
 _atom_site_fract_z
 _atom_site_occupancy
  Fe  Fe0  1  0.12500002  0.62499996  0.62500006  1.0
  Fe  Fe1  1  0.62500002  0.62499998  0.62500001  1.0
  Fe  Fe2  1  0.62499997  0.12500002  0.62499999  1.0
  Fe  Fe3  1  0.62500000  0.62500000  0.12500000  1.0
  Ge  Ge4  1  0.12500002  0.62500000  0.12500001  1.0
  Ge  Ge5  1  0.12499997  0.12500002  0.62499999  1.0
  Ge  Ge6  1  0.62500001  0.12499998  0.12499999  1.0
  Ge  Ge7  1  0.12500001  0.12499998  0.12499997  1.0
  O  O8  1  0.75000021  0.75000030  0.75000012  1.0
  O  O9  1  0.20997224  0.79002791  0.79002789  1.0
  O  O10  1  0.20997198  0.79002765  0.20997201  1.0
  O  O11  1  0.79002790  0.79002782  0.20997228  1.0
  O  O12  1  0.79002794  0.20997225  0.79002778  1.0
  O  O13  1  0.20997187  0.20997206  0.79002770  1.0
  O  O14  1  0.45997232  0.04002793  0.04002796  1.0
  O  O15  1  0.79002771  0.20997204  0.20997203  1.0
  O  O16  1  0.04002811  0.04002801  0.45997231  1.0
  O  O17  1  0.45997206  0.04002772  0.45997221  1.0
  O  O18  1  0.04002801  0.45997234  0.04002794  1.0
  O  O19  1  0.45997211  0.45997220  0.04002773  1.0
  O  O20  1  0.04002772  0.45997207  0.45997217  1.0
  O  O21  1  0.49999980  0.49999975  0.49999987  1.0
