# generated using pymatgen
data_Fe2SO2
_symmetry_space_group_name_H-M   'P 1'
_cell_length_a   3.41581013
_cell_length_b   3.41581032
_cell_length_c   6.21566341
_cell_angle_alpha   90.00006598
_cell_angle_beta   89.99992960
_cell_angle_gamma   120.00008237
_symmetry_Int_Tables_number   1
_chemical_formula_structural   Fe2SO2
_chemical_formula_sum   'Fe2 S1 O2'
_cell_volume   62.80659197
_cell_formula_units_Z   1
loop_
 _symmetry_equiv_pos_site_id
 _symmetry_equiv_pos_as_xyz
  1  'x, y, z'
loop_
 _atom_site_type_symbol
 _atom_site_label
 _atom_site_symmetry_multiplicity
 _atom_site_fract_x
 _atom_site_fract_y
 _atom_site_fract_z
 _atom_site_occupancy
  Fe  Fe0  1  0.66666667  0.33333333  0.71500071  1.0
  Fe  Fe1  1  0.33333333  0.66666667  0.28499918  1.0
  S  S2  1  0.99999998  0.00000003  0.00000006  1.0
  O  O3  1  0.66666667  0.33333333  0.36696568  1.0
  O  O4  1  0.33333333  0.66666667  0.63303437  1.0
