# generated using pymatgen
data_FeClO
_symmetry_space_group_name_H-M   'P 1'
_cell_length_a   3.48415579
_cell_length_b   3.48415675
_cell_length_c   7.87005660
_cell_angle_alpha   89.99975998
_cell_angle_beta   90.00097470
_cell_angle_gamma   90.00000099
_symmetry_Int_Tables_number   1
_chemical_formula_structural   FeClO
_chemical_formula_sum   'Fe2 Cl2 O2'
_cell_volume   95.53733154
_cell_formula_units_Z   2
loop_
 _symmetry_equiv_pos_site_id
 _symmetry_equiv_pos_as_xyz
  1  'x, y, z'
loop_
 _atom_site_type_symbol
 _atom_site_label
 _atom_site_symmetry_multiplicity
 _atom_site_fract_x
 _atom_site_fract_y
 _atom_site_fract_z
 _atom_site_occupancy
  Fe  Fe0  1  0.74999472  0.75000121  0.86931651  1.0
  Fe  Fe1  1  0.25000614  0.24999792  0.13068382  1.0
  Cl  Cl2  1  0.25000497  0.24999899  0.68089811  1.0
  Cl  Cl3  1  0.74999371  0.75000221  0.31910178  1.0
  O  O4  1  0.75000239  0.25000013  0.99999975  1.0
  O  O5  1  0.24999808  0.74999954  0.00000003  1.0
