# generated using pymatgen
data_FeHO2
_symmetry_space_group_name_H-M   'P 1'
_cell_length_a   3.05463689
_cell_length_b   4.45589242
_cell_length_c   5.03670455
_cell_angle_alpha   90.00000000
_cell_angle_beta   90.00000030
_cell_angle_gamma   90.00000032
_symmetry_Int_Tables_number   1
_chemical_formula_structural   FeHO2
_chemical_formula_sum   'Fe2 H2 O4'
_cell_volume   68.55525735
_cell_formula_units_Z   2
loop_
 _symmetry_equiv_pos_site_id
 _symmetry_equiv_pos_as_xyz
  1  'x, y, z'
loop_
 _atom_site_type_symbol
 _atom_site_label
 _atom_site_symmetry_multiplicity
 _atom_site_fract_x
 _atom_site_fract_y
 _atom_site_fract_z
 _atom_site_occupancy
  Fe  Fe0  1  0.49999999  0.22619343  0.50078782  1.0
  Fe  Fe1  1  0.99999999  0.77380660  0.00078781  1.0
  H  H2  1  0.50000001  0.30551459  0.01939511  1.0
  H  H3  1  0.00000000  0.69448543  0.51939514  1.0
  O  O4  1  0.00000000  0.50972990  0.64182108  1.0
  O  O5  1  0.50000001  0.49027007  0.14182111  1.0
  O  O6  1  0.00000000  0.98848561  0.35129599  1.0
  O  O7  1  0.50000000  0.01151436  0.85129594  1.0
