# generated using pymatgen
data_FeOF
_symmetry_space_group_name_H-M   'P 1'
_cell_length_a   3.01097375
_cell_length_b   7.22237573
_cell_length_c   8.37680243
_cell_angle_alpha   90.00003800
_cell_angle_beta   89.99999725
_cell_angle_gamma   89.99999767
_symmetry_Int_Tables_number   1
_chemical_formula_structural   FeOF
_chemical_formula_sum   'Fe4 O4 F4'
_cell_volume   182.16516012
_cell_formula_units_Z   4
loop_
 _symmetry_equiv_pos_site_id
 _symmetry_equiv_pos_as_xyz
  1  'x, y, z'
loop_
 _atom_site_type_symbol
 _atom_site_label
 _atom_site_symmetry_multiplicity
 _atom_site_fract_x
 _atom_site_fract_y
 _atom_site_fract_z
 _atom_site_occupancy
  Fe  Fe0  1  0.74999997  0.16469157  0.03019060  1.0
  Fe  Fe1  1  0.25000003  0.33530834  0.53019100  1.0
  Fe  Fe2  1  0.75000003  0.66469159  0.46980898  1.0
  Fe  Fe3  1  0.24999996  0.83530848  0.96980943  1.0
  O  O4  1  0.75000000  0.96984577  0.86869301  1.0
  O  O5  1  0.25000005  0.53015380  0.36869280  1.0
  O  O6  1  0.75000002  0.46984615  0.63130716  1.0
  O  O7  1  0.24999993  0.03015429  0.13130701  1.0
  F  F8  1  0.75000007  0.17095975  0.46403843  1.0
  F  F9  1  0.24999994  0.32904033  0.96403756  1.0
  F  F10  1  0.74999999  0.67095973  0.03596249  1.0
  F  F11  1  0.24999999  0.82904019  0.53596154  1.0
