# generated using pymatgen
data_Ga2PbO4
_symmetry_space_group_name_H-M   'P 1'
_cell_length_a   3.07068383
_cell_length_b   9.63943916
_cell_length_c   11.16988496
_cell_angle_alpha   89.99996333
_cell_angle_beta   90.00000034
_cell_angle_gamma   89.99999964
_symmetry_Int_Tables_number   1
_chemical_formula_structural   Ga2PbO4
_chemical_formula_sum   'Ga8 Pb4 O16'
_cell_volume   330.62490829
_cell_formula_units_Z   4
loop_
 _symmetry_equiv_pos_site_id
 _symmetry_equiv_pos_as_xyz
  1  'x, y, z'
loop_
 _atom_site_type_symbol
 _atom_site_label
 _atom_site_symmetry_multiplicity
 _atom_site_fract_x
 _atom_site_fract_y
 _atom_site_fract_z
 _atom_site_occupancy
  Ga  Ga0  1  0.25000001  0.56893236  0.39168026  1.0
  Ga  Ga1  1  0.75000001  0.43106865  0.60831997  1.0
  Ga  Ga2  1  0.25000001  0.06893207  0.10831984  1.0
  Ga  Ga3  1  0.74999999  0.93106894  0.89167990  1.0
  Ga  Ga4  1  0.75000000  0.92033399  0.39534917  1.0
  Ga  Ga5  1  0.25000000  0.07966529  0.60465070  1.0
  Ga  Ga6  1  0.74999999  0.42033304  0.10465064  1.0
  Ga  Ga7  1  0.25000000  0.57966611  0.89534945  1.0
  Pb  Pb8  1  0.75000000  0.25508764  0.84756503  1.0
  Pb  Pb9  1  0.24999999  0.74491261  0.15243397  1.0
  Pb  Pb10  1  0.75000002  0.75508704  0.65243460  1.0
  Pb  Pb11  1  0.25000000  0.24491324  0.34756642  1.0
  O  O12  1  0.25000001  0.57114902  0.57159041  1.0
  O  O13  1  0.75000000  0.42885083  0.42841008  1.0
  O  O14  1  0.25000000  0.07114919  0.92840946  1.0
  O  O15  1  0.74999999  0.92885060  0.07159006  1.0
  O  O16  1  0.25000000  0.47083396  0.21473463  1.0
  O  O17  1  0.74999999  0.52916574  0.78526571  1.0
  O  O18  1  0.25000001  0.97083475  0.28526521  1.0
  O  O19  1  0.75000000  0.02916498  0.71473453  1.0
  O  O20  1  0.25000001  0.88942496  0.51444120  1.0
  O  O21  1  0.75000000  0.11057475  0.48555865  1.0
  O  O22  1  0.25000000  0.38942505  0.98555827  1.0
  O  O23  1  0.74999999  0.61057450  0.01444185  1.0
  O  O24  1  0.75000001  0.70059419  0.35836154  1.0
  O  O25  1  0.24999999  0.29940619  0.64163743  1.0
  O  O26  1  0.75000001  0.20059414  0.14163843  1.0
  O  O27  1  0.24999998  0.79940615  0.85836257  1.0
