# generated using pymatgen
data_Ga2SO2
_symmetry_space_group_name_H-M   'P 1'
_cell_length_a   3.21867843
_cell_length_b   3.21867898
_cell_length_c   7.23555472
_cell_angle_alpha   89.99999926
_cell_angle_beta   89.99997990
_cell_angle_gamma   120.00005812
_symmetry_Int_Tables_number   1
_chemical_formula_structural   Ga2SO2
_chemical_formula_sum   'Ga2 S1 O2'
_cell_volume   64.91685372
_cell_formula_units_Z   1
loop_
 _symmetry_equiv_pos_site_id
 _symmetry_equiv_pos_as_xyz
  1  'x, y, z'
loop_
 _atom_site_type_symbol
 _atom_site_label
 _atom_site_symmetry_multiplicity
 _atom_site_fract_x
 _atom_site_fract_y
 _atom_site_fract_z
 _atom_site_occupancy
  Ga  Ga0  1  0.66666667  0.33333333  0.75517195  1.0
  Ga  Ga1  1  0.33333333  0.66666667  0.24482788  1.0
  S  S2  1  0.00000146  0.99999963  0.00000007  1.0
  O  O3  1  0.33333333  0.66666667  0.66198575  1.0
  O  O4  1  0.66666667  0.33333333  0.33801435  1.0
