# generated using pymatgen
data_GaAgS2
_symmetry_space_group_name_H-M   'P 1'
_cell_length_a   6.52280260
_cell_length_b   6.71794603
_cell_length_c   8.09560293
_cell_angle_alpha   89.99998438
_cell_angle_beta   89.99998918
_cell_angle_gamma   90.00000242
_symmetry_Int_Tables_number   1
_chemical_formula_structural   GaAgS2
_chemical_formula_sum   'Ga4 Ag4 S8'
_cell_volume   354.74799135
_cell_formula_units_Z   4
loop_
 _symmetry_equiv_pos_site_id
 _symmetry_equiv_pos_as_xyz
  1  'x, y, z'
loop_
 _atom_site_type_symbol
 _atom_site_label
 _atom_site_symmetry_multiplicity
 _atom_site_fract_x
 _atom_site_fract_y
 _atom_site_fract_z
 _atom_site_occupancy
  Ga  Ga0  1  0.62020451  0.56836268  0.62598027  1.0
  Ga  Ga1  1  0.12020445  0.43163718  0.37401953  1.0
  Ga  Ga2  1  0.12020445  0.93163733  0.12598025  1.0
  Ga  Ga3  1  0.62020432  0.06836277  0.87401955  1.0
  Ag  Ag4  1  0.62483155  0.58610173  0.12311499  1.0
  Ag  Ag5  1  0.12483169  0.91389817  0.62311489  1.0
  Ag  Ag6  1  0.62483177  0.08610171  0.37688537  1.0
  Ag  Ag7  1  0.12483169  0.41389835  0.87688518  1.0
  S  S8  1  0.97588692  0.05969025  0.88917625  1.0
  S  S9  1  0.97588710  0.55968995  0.61082358  1.0
  S  S10  1  0.47588704  0.94030997  0.11082376  1.0
  S  S11  1  0.47588700  0.44030985  0.38917642  1.0
  S  S12  1  0.51528587  0.89889343  0.64006330  1.0
  S  S13  1  0.01528600  0.10110651  0.35993674  1.0
  S  S14  1  0.01528575  0.60110660  0.14006306  1.0
  S  S15  1  0.51528587  0.39889352  0.85993687  1.0
