# generated using pymatgen
data_GaAgO2
_symmetry_space_group_name_H-M   'P 1'
_cell_length_a   2.94189054
_cell_length_b   5.72536597
_cell_length_c   5.63794885
_cell_angle_alpha   90.03238401
_cell_angle_beta   90.00000157
_cell_angle_gamma   89.99999401
_symmetry_Int_Tables_number   1
_chemical_formula_structural   GaAgO2
_chemical_formula_sum   'Ga2 Ag2 O4'
_cell_volume   94.96221241
_cell_formula_units_Z   2
loop_
 _symmetry_equiv_pos_site_id
 _symmetry_equiv_pos_as_xyz
  1  'x, y, z'
loop_
 _atom_site_type_symbol
 _atom_site_label
 _atom_site_symmetry_multiplicity
 _atom_site_fract_x
 _atom_site_fract_y
 _atom_site_fract_z
 _atom_site_occupancy
  Ga  Ga0  1  0.49999999  0.34816810  0.40731790  1.0
  Ga  Ga1  1  0.00000002  0.65195425  0.90760728  1.0
  Ag  Ag2  1  0.50000054  0.83905496  0.40719452  1.0
  Ag  Ag3  1  0.99999942  0.16067287  0.90657461  1.0
  O  O4  1  0.00000005  0.15370268  0.51204512  1.0
  O  O5  1  0.49999996  0.84649716  0.01259438  1.0
  O  O6  1  0.00000001  0.45017883  0.18651891  1.0
  O  O7  1  0.50000001  0.54977114  0.68674727  1.0
