# generated using pymatgen
data_GaHS2
_symmetry_space_group_name_H-M   'P 1'
_cell_length_a   3.58331968
_cell_length_b   5.63845756
_cell_length_c   6.45535794
_cell_angle_alpha   90.00059757
_cell_angle_beta   89.99999682
_cell_angle_gamma   89.99998417
_symmetry_Int_Tables_number   1
_chemical_formula_structural   GaHS2
_chemical_formula_sum   'Ga2 H2 S4'
_cell_volume   130.42660774
_cell_formula_units_Z   2
loop_
 _symmetry_equiv_pos_site_id
 _symmetry_equiv_pos_as_xyz
  1  'x, y, z'
loop_
 _atom_site_type_symbol
 _atom_site_label
 _atom_site_symmetry_multiplicity
 _atom_site_fract_x
 _atom_site_fract_y
 _atom_site_fract_z
 _atom_site_occupancy
  Ga  Ga0  1  0.50000008  0.29424033  0.49790668  1.0
  Ga  Ga1  1  0.99999993  0.70577044  0.99791739  1.0
  H  H2  1  0.49999990  0.15191627  0.99508912  1.0
  H  H3  1  0.00000004  0.84808584  0.49508945  1.0
  S  S4  1  0.99999997  0.49510223  0.66555990  1.0
  S  S5  1  0.50000001  0.50489312  0.16555755  1.0
  S  S6  1  0.00000010  0.03394215  0.35473887  1.0
  S  S7  1  0.49999997  0.96604961  0.85474104  1.0
