# generated using pymatgen
data_Gd3Si6N11
_symmetry_space_group_name_H-M   'P 1'
_cell_length_a   10.01984896
_cell_length_b   10.01984836
_cell_length_c   4.89025756
_cell_angle_alpha   89.99983232
_cell_angle_beta   90.00016281
_cell_angle_gamma   89.99999680
_symmetry_Int_Tables_number   1
_chemical_formula_structural   Gd3Si6N11
_chemical_formula_sum   'Gd6 Si12 N22'
_cell_volume   490.96898380
_cell_formula_units_Z   2
loop_
 _symmetry_equiv_pos_site_id
 _symmetry_equiv_pos_as_xyz
  1  'x, y, z'
loop_
 _atom_site_type_symbol
 _atom_site_label
 _atom_site_symmetry_multiplicity
 _atom_site_fract_x
 _atom_site_fract_y
 _atom_site_fract_z
 _atom_site_occupancy
  Gd  Gd0  1  0.49999709  0.50000270  0.97857161  1.0
  Gd  Gd1  1  0.99999998  0.00000026  0.97858089  1.0
  Gd  Gd2  1  0.81767904  0.31765408  0.98953960  1.0
  Gd  Gd3  1  0.31765349  0.18232520  0.98953241  1.0
  Gd  Gd4  1  0.68234745  0.81767984  0.98955145  1.0
  Gd  Gd5  1  0.18232224  0.68234494  0.98954357  1.0
  Si  Si6  1  0.38137908  0.88137422  0.04496994  1.0
  Si  Si7  1  0.88137813  0.61861804  0.04497561  1.0
  Si  Si8  1  0.11862410  0.38138049  0.04496884  1.0
  Si  Si9  1  0.61861656  0.11862059  0.04497155  1.0
  Si  Si10  1  0.70840519  0.57975025  0.53242384  1.0
  Si  Si11  1  0.29159366  0.42025298  0.53241978  1.0
  Si  Si12  1  0.42025193  0.70840789  0.53242239  1.0
  Si  Si13  1  0.57974885  0.29159463  0.53241993  1.0
  Si  Si14  1  0.92025315  0.79159196  0.53241944  1.0
  Si  Si15  1  0.79159116  0.07974703  0.53241743  1.0
  Si  Si16  1  0.20840864  0.92025082  0.53241341  1.0
  Si  Si17  1  0.07974931  0.20840794  0.53241201  1.0
  N  N18  1  0.50000365  0.00000355  0.07412549  1.0
  N  N19  1  0.99999373  0.49999772  0.07412489  1.0
  N  N20  1  0.34708809  0.84709558  0.69718465  1.0
  N  N21  1  0.84709565  0.65291143  0.69718780  1.0
  N  N22  1  0.15290570  0.34708690  0.69718340  1.0
  N  N23  1  0.65291291  0.15290621  0.69718538  1.0
  N  N24  1  0.72504931  0.57839750  0.17861334  1.0
  N  N25  1  0.27495014  0.42160331  0.17860722  1.0
  N  N26  1  0.42160610  0.72504909  0.17860907  1.0
  N  N27  1  0.57839768  0.27495036  0.17861231  1.0
  N  N28  1  0.92161126  0.77495562  0.17859506  1.0
  N  N29  1  0.77495502  0.07838672  0.17859448  1.0
  N  N30  1  0.22504289  0.92160636  0.17859058  1.0
  N  N31  1  0.07839341  0.22504326  0.17858882  1.0
  N  N32  1  0.57932996  0.68072076  0.65211929  1.0
  N  N33  1  0.42067050  0.31928392  0.65211300  1.0
  N  N34  1  0.31928179  0.57933030  0.65211917  1.0
  N  N35  1  0.68071654  0.42067341  0.65211295  1.0
  N  N36  1  0.18072868  0.07933320  0.65206459  1.0
  N  N37  1  0.07933286  0.81926979  0.65206742  1.0
  N  N38  1  0.92066475  0.18072783  0.65206366  1.0
  N  N39  1  0.81927035  0.92066328  0.65206966  1.0
