# generated using pymatgen
data_GdTlO2
_symmetry_space_group_name_H-M   'P 1'
_cell_length_a   6.80543015
_cell_length_b   6.80542852
_cell_length_c   6.80543026
_cell_angle_alpha   30.39837686
_cell_angle_beta   30.39838083
_cell_angle_gamma   30.39838736
_symmetry_Int_Tables_number   1
_chemical_formula_structural   GdTlO2
_chemical_formula_sum   'Gd1 Tl1 O2'
_cell_volume   71.52678865
_cell_formula_units_Z   1
loop_
 _symmetry_equiv_pos_site_id
 _symmetry_equiv_pos_as_xyz
  1  'x, y, z'
loop_
 _atom_site_type_symbol
 _atom_site_label
 _atom_site_symmetry_multiplicity
 _atom_site_fract_x
 _atom_site_fract_y
 _atom_site_fract_z
 _atom_site_occupancy
  Gd  Gd0  1  0.49999995  0.49999798  0.50000205  1.0
  Tl  Tl1  1  0.99999985  0.00000074  0.99999932  1.0
  O  O2  1  0.77519708  0.77519787  0.77519656  1.0
  O  O3  1  0.22480312  0.22480341  0.22480207  1.0
