# generated using pymatgen
data_GdYO3
_symmetry_space_group_name_H-M   'P 1'
_cell_length_a   6.49342003
_cell_length_b   6.49342106
_cell_length_c   12.78869654
_cell_angle_alpha   89.99999828
_cell_angle_beta   90.00000080
_cell_angle_gamma   120.00007835
_symmetry_Int_Tables_number   1
_chemical_formula_structural   GdYO3
_chemical_formula_sum   'Gd6 Y6 O18'
_cell_volume   466.98575456
_cell_formula_units_Z   6
loop_
 _symmetry_equiv_pos_site_id
 _symmetry_equiv_pos_as_xyz
  1  'x, y, z'
loop_
 _atom_site_type_symbol
 _atom_site_label
 _atom_site_symmetry_multiplicity
 _atom_site_fract_x
 _atom_site_fract_y
 _atom_site_fract_z
 _atom_site_occupancy
  Gd  Gd0  1  0.00000010  0.66695926  0.50083283  1.0
  Gd  Gd1  1  0.99999990  0.33304071  0.00083289  1.0
  Gd  Gd2  1  0.33304090  0.33304096  0.50083281  1.0
  Gd  Gd3  1  0.66695909  0.66695902  0.00083288  1.0
  Gd  Gd4  1  0.33304068  0.99999986  0.00083282  1.0
  Gd  Gd5  1  0.66695932  0.00000011  0.50083276  1.0
  Y  Y6  1  0.33333333  0.66666667  0.23568285  1.0
  Y  Y7  1  0.99999998  0.00000026  0.26797952  1.0
  Y  Y8  1  0.00000008  0.99999988  0.76797951  1.0
  Y  Y9  1  0.33333333  0.66666667  0.73568286  1.0
  Y  Y10  1  0.66666667  0.33333333  0.73568285  1.0
  Y  Y11  1  0.66666667  0.33333333  0.23568285  1.0
  O  O12  1  0.99999991  0.69897131  0.67701335  1.0
  O  O13  1  0.00000020  0.62826086  0.32732122  1.0
  O  O14  1  0.99999984  0.37173934  0.82732118  1.0
  O  O15  1  0.00000009  0.30102849  0.17701341  1.0
  O  O16  1  0.33333333  0.66666667  0.03662572  1.0
  O  O17  1  0.00000039  0.99999965  0.45951618  1.0
  O  O18  1  0.99999954  0.00000021  0.95951600  1.0
  O  O19  1  0.33333333  0.66666667  0.53662557  1.0
  O  O20  1  0.30102846  0.30102865  0.67701356  1.0
  O  O21  1  0.37173927  0.37173905  0.32732101  1.0
  O  O22  1  0.30102896  0.99999991  0.17701412  1.0
  O  O23  1  0.62826070  0.62826093  0.82732105  1.0
  O  O24  1  0.69897153  0.69897136  0.17701349  1.0
  O  O25  1  0.37173822  0.00000006  0.82732065  1.0
  O  O26  1  0.66666667  0.33333333  0.53662558  1.0
  O  O27  1  0.66666667  0.33333333  0.03662572  1.0
  O  O28  1  0.62826184  0.00000000  0.32732063  1.0
  O  O29  1  0.69897098  0.00000011  0.67701415  1.0
