# generated using pymatgen
data_Ge2Rh2O7
_symmetry_space_group_name_H-M   'P 1'
_cell_length_a   6.86083826
_cell_length_b   6.86084437
_cell_length_c   6.86085855
_cell_angle_alpha   59.99993892
_cell_angle_beta   59.99990850
_cell_angle_gamma   59.99984680
_symmetry_Int_Tables_number   1
_chemical_formula_structural   Ge2Rh2O7
_chemical_formula_sum   'Ge4 Rh4 O14'
_cell_volume   228.35851668
_cell_formula_units_Z   2
loop_
 _symmetry_equiv_pos_site_id
 _symmetry_equiv_pos_as_xyz
  1  'x, y, z'
loop_
 _atom_site_type_symbol
 _atom_site_label
 _atom_site_symmetry_multiplicity
 _atom_site_fract_x
 _atom_site_fract_y
 _atom_site_fract_z
 _atom_site_occupancy
  Ge  Ge0  1  0.12500001  0.62499999  0.12500000  1.0
  Ge  Ge1  1  0.12500002  0.12499999  0.62499999  1.0
  Ge  Ge2  1  0.62499998  0.12500001  0.12500000  1.0
  Ge  Ge3  1  0.12500001  0.12500000  0.12500001  1.0
  Rh  Rh4  1  0.12499994  0.62500001  0.62500003  1.0
  Rh  Rh5  1  0.62500001  0.62500003  0.62500001  1.0
  Rh  Rh6  1  0.62500003  0.12499994  0.62500003  1.0
  Rh  Rh7  1  0.62500002  0.62500002  0.12499993  1.0
  O  O8  1  0.75000091  0.75000039  0.74999891  1.0
  O  O9  1  0.20655537  0.79344435  0.79344447  1.0
  O  O10  1  0.20655458  0.79344467  0.20655570  1.0
  O  O11  1  0.79344506  0.79344496  0.20655531  1.0
  O  O12  1  0.79344459  0.20655530  0.79344466  1.0
  O  O13  1  0.20655543  0.20655571  0.79344429  1.0
  O  O14  1  0.45655512  0.04344546  0.04344465  1.0
  O  O15  1  0.79344489  0.20655454  0.20655534  1.0
  O  O16  1  0.04344456  0.04344430  0.45655571  1.0
  O  O17  1  0.45655541  0.04344469  0.45655534  1.0
  O  O18  1  0.04344539  0.45655536  0.04344430  1.0
  O  O19  1  0.45655494  0.45655504  0.04344468  1.0
  O  O20  1  0.04344462  0.45655565  0.45655555  1.0
  O  O21  1  0.49999911  0.49999960  0.50000107  1.0
