# generated using pymatgen
data_Ge3Bi2S9
_symmetry_space_group_name_H-M   'P 1'
_cell_length_a   8.70734071
_cell_length_b   8.70722360
_cell_length_c   12.42234710
_cell_angle_alpha   90.00001663
_cell_angle_beta   89.99998894
_cell_angle_gamma   120.00162090
_symmetry_Int_Tables_number   1
_chemical_formula_structural   Ge3Bi2S9
_chemical_formula_sum   'Ge6 Bi4 S18'
_cell_volume   815.62857672
_cell_formula_units_Z   2
loop_
 _symmetry_equiv_pos_site_id
 _symmetry_equiv_pos_as_xyz
  1  'x, y, z'
loop_
 _atom_site_type_symbol
 _atom_site_label
 _atom_site_symmetry_multiplicity
 _atom_site_fract_x
 _atom_site_fract_y
 _atom_site_fract_z
 _atom_site_occupancy
  Ge  Ge0  1  0.72311784  0.93625354  0.74999996  1.0
  Ge  Ge1  1  0.78684897  0.72311926  0.25000016  1.0
  Ge  Ge2  1  0.93622466  0.21313652  0.24999999  1.0
  Ge  Ge3  1  0.06376644  0.78687410  0.75000002  1.0
  Ge  Ge4  1  0.21316612  0.27687993  0.74999980  1.0
  Ge  Ge5  1  0.27688520  0.06374770  0.25000008  1.0
  Bi  Bi6  1  0.33333333  0.66666667  0.50563435  1.0
  Bi  Bi7  1  0.66666667  0.33333333  0.00563126  1.0
  Bi  Bi8  1  0.66666667  0.33333333  0.49436890  1.0
  Bi  Bi9  1  0.33333333  0.66666667  0.99436548  1.0
  S  S10  1  0.40557877  0.05189727  0.40327335  1.0
  S  S11  1  0.35370752  0.40558609  0.90327482  1.0
  S  S12  1  0.05190250  0.64629666  0.90327532  1.0
  S  S13  1  0.94808737  0.35370027  0.40327599  1.0
  S  S14  1  0.64629381  0.59440803  0.40327781  1.0
  S  S15  1  0.59441247  0.94810444  0.90327173  1.0
  S  S16  1  0.59441205  0.94810415  0.59672840  1.0
  S  S17  1  0.64629362  0.59440738  0.09672267  1.0
  S  S18  1  0.94808747  0.35369922  0.09672357  1.0
  S  S19  1  0.05190258  0.64629566  0.59672509  1.0
  S  S20  1  0.22599719  0.29093136  0.25000015  1.0
  S  S21  1  0.93510182  0.22600433  0.74999972  1.0
  S  S22  1  0.29095147  0.06492325  0.74999987  1.0
  S  S23  1  0.70906322  0.93508097  0.25000018  1.0
  S  S24  1  0.06490859  0.77399560  0.25000040  1.0
  S  S25  1  0.77401256  0.70907659  0.74999989  1.0
  S  S26  1  0.40557832  0.05189702  0.09672659  1.0
  S  S27  1  0.35370689  0.40558505  0.59672446  1.0
