# generated using pymatgen
data_Ge3Bi2Se9
_symmetry_space_group_name_H-M   'P 1'
_cell_length_a   9.14812679
_cell_length_b   9.14813949
_cell_length_c   13.02832407
_cell_angle_alpha   90.00044532
_cell_angle_beta   89.99993974
_cell_angle_gamma   120.00316176
_symmetry_Int_Tables_number   1
_chemical_formula_structural   Ge3Bi2Se9
_chemical_formula_sum   'Ge6 Bi4 Se18'
_cell_volume   944.21370583
_cell_formula_units_Z   2
loop_
 _symmetry_equiv_pos_site_id
 _symmetry_equiv_pos_as_xyz
  1  'x, y, z'
loop_
 _atom_site_type_symbol
 _atom_site_label
 _atom_site_symmetry_multiplicity
 _atom_site_fract_x
 _atom_site_fract_y
 _atom_site_fract_z
 _atom_site_occupancy
  Ge  Ge0  1  0.72173624  0.93516552  0.75000047  1.0
  Ge  Ge1  1  0.78655733  0.72174829  0.24999823  1.0
  Ge  Ge2  1  0.93518868  0.21343808  0.25000081  1.0
  Ge  Ge3  1  0.06483195  0.78657560  0.74999855  1.0
  Ge  Ge4  1  0.21343945  0.27825575  0.75000048  1.0
  Ge  Ge5  1  0.27825324  0.06483282  0.24999897  1.0
  Bi  Bi6  1  0.33333333  0.66666667  0.50643003  1.0
  Bi  Bi7  1  0.66666667  0.33333333  0.00643332  1.0
  Bi  Bi8  1  0.66666667  0.33333333  0.49356637  1.0
  Bi  Bi9  1  0.33333333  0.66666667  0.99357005  1.0
  Se  Se10  1  0.40037850  0.04926503  0.40912032  1.0
  Se  Se11  1  0.35111879  0.40037596  0.90910995  1.0
  Se  Se12  1  0.04925878  0.64888505  0.90911874  1.0
  Se  Se13  1  0.95074062  0.35111913  0.40911718  1.0
  Se  Se14  1  0.64887800  0.59962009  0.40911394  1.0
  Se  Se15  1  0.59961826  0.95073122  0.90911716  1.0
  Se  Se16  1  0.59961953  0.95073197  0.59088216  1.0
  Se  Se17  1  0.64887888  0.59961983  0.09088882  1.0
  Se  Se18  1  0.95074215  0.35111683  0.09087950  1.0
  Se  Se19  1  0.04926007  0.64888333  0.59088496  1.0
  Se  Se20  1  0.23050527  0.29857404  0.25000094  1.0
  Se  Se21  1  0.93193689  0.23049372  0.75000225  1.0
  Se  Se22  1  0.29856714  0.06806054  0.74999878  1.0
  Se  Se23  1  0.70143618  0.93193883  0.25000139  1.0
  Se  Se24  1  0.06806019  0.76950577  0.24999817  1.0
  Se  Se25  1  0.76949745  0.70142834  0.74999939  1.0
  Se  Se26  1  0.40037901  0.04926551  0.09088098  1.0
  Se  Se27  1  0.35111801  0.40037428  0.59088809  1.0
