# generated using pymatgen
data_Hf3Bi2O9
_symmetry_space_group_name_H-M   'P 1'
_cell_length_a   7.54274394
_cell_length_b   7.54276247
_cell_length_c   10.90318525
_cell_angle_alpha   90.00000655
_cell_angle_beta   89.99999729
_cell_angle_gamma   120.00005260
_symmetry_Int_Tables_number   1
_chemical_formula_structural   Hf3Bi2O9
_chemical_formula_sum   'Hf6 Bi4 O18'
_cell_volume   537.20938188
_cell_formula_units_Z   2
loop_
 _symmetry_equiv_pos_site_id
 _symmetry_equiv_pos_as_xyz
  1  'x, y, z'
loop_
 _atom_site_type_symbol
 _atom_site_label
 _atom_site_symmetry_multiplicity
 _atom_site_fract_x
 _atom_site_fract_y
 _atom_site_fract_z
 _atom_site_occupancy
  Hf  Hf0  1  0.69319928  0.91590769  0.74999997  1.0
  Hf  Hf1  1  0.77729307  0.69320311  0.25000002  1.0
  Hf  Hf2  1  0.91591175  0.22271029  0.25000002  1.0
  Hf  Hf3  1  0.08408831  0.77728955  0.75000003  1.0
  Hf  Hf4  1  0.22270703  0.30679686  0.74999993  1.0
  Hf  Hf5  1  0.30680068  0.08409218  0.24999999  1.0
  Bi  Bi6  1  0.33333333  0.66666667  0.48408058  1.0
  Bi  Bi7  1  0.66666667  0.33333333  0.98408060  1.0
  Bi  Bi8  1  0.66666667  0.33333333  0.51591945  1.0
  Bi  Bi9  1  0.33333333  0.66666667  0.01591939  1.0
  O  O10  1  0.45341586  0.09504569  0.39881329  1.0
  O  O11  1  0.35836801  0.45341095  0.89881394  1.0
  O  O12  1  0.09504057  0.64162797  0.89881368  1.0
  O  O13  1  0.90495930  0.35837190  0.39881366  1.0
  O  O14  1  0.64163226  0.54658930  0.39881408  1.0
  O  O15  1  0.54658406  0.90495434  0.89881325  1.0
  O  O16  1  0.54658415  0.90495422  0.60118663  1.0
  O  O17  1  0.64163214  0.54658907  0.10118597  1.0
  O  O18  1  0.90495933  0.35837182  0.10118641  1.0
  O  O19  1  0.09504080  0.64162782  0.60118650  1.0
  O  O20  1  0.19428941  0.26914032  0.25000006  1.0
  O  O21  1  0.92514702  0.19428528  0.75000000  1.0
  O  O22  1  0.26913531  0.07484893  0.75000002  1.0
  O  O23  1  0.73086471  0.92515100  0.24999999  1.0
  O  O24  1  0.07485296  0.80571472  0.25000001  1.0
  O  O25  1  0.80571063  0.73085951  0.74999993  1.0
  O  O26  1  0.45341583  0.09504559  0.10118672  1.0
  O  O27  1  0.35836793  0.45341059  0.60118588  1.0
