# generated using pymatgen
data_HfCoO3
_symmetry_space_group_name_H-M   'P 1'
_cell_length_a   5.39782515
_cell_length_b   5.43042064
_cell_length_c   7.82620650
_cell_angle_alpha   90.00016903
_cell_angle_beta   90.00008959
_cell_angle_gamma   89.99949182
_symmetry_Int_Tables_number   1
_chemical_formula_structural   HfCoO3
_chemical_formula_sum   'Hf4 Co4 O12'
_cell_volume   229.40537363
_cell_formula_units_Z   4
loop_
 _symmetry_equiv_pos_site_id
 _symmetry_equiv_pos_as_xyz
  1  'x, y, z'
loop_
 _atom_site_type_symbol
 _atom_site_label
 _atom_site_symmetry_multiplicity
 _atom_site_fract_x
 _atom_site_fract_y
 _atom_site_fract_z
 _atom_site_occupancy
  Hf  Hf0  1  0.00000155  0.49999995  0.00000051  1.0
  Hf  Hf1  1  0.00000218  0.49999829  0.50000016  1.0
  Hf  Hf2  1  0.49999843  0.99999971  0.00000060  1.0
  Hf  Hf3  1  0.49999815  0.99999820  0.50000009  1.0
  Co  Co4  1  0.51432984  0.47293929  0.75000451  1.0
  Co  Co5  1  0.48566739  0.52706116  0.25000037  1.0
  Co  Co6  1  0.98567631  0.97292565  0.75000132  1.0
  Co  Co7  1  0.01432695  0.02707477  0.25000331  1.0
  O  O8  1  0.12081195  0.41583239  0.25000073  1.0
  O  O9  1  0.37918414  0.91583209  0.25000074  1.0
  O  O10  1  0.62081872  0.08416754  0.74999907  1.0
  O  O11  1  0.87918565  0.58416664  0.74999896  1.0
  O  O12  1  0.16472225  0.16766899  0.56616187  1.0
  O  O13  1  0.16472573  0.16767592  0.93383299  1.0
  O  O14  1  0.33527194  0.66766519  0.56616826  1.0
  O  O15  1  0.33526817  0.66767165  0.93383131  1.0
  O  O16  1  0.66472593  0.33233658  0.06616534  1.0
  O  O17  1  0.66473194  0.33232809  0.43382936  1.0
  O  O18  1  0.83527947  0.83233192  0.06616357  1.0
  O  O19  1  0.83527531  0.83232498  0.43383592  1.0
