# generated using pymatgen
data_HfMgO3
_symmetry_space_group_name_H-M   'P 1'
_cell_length_a   5.33086534
_cell_length_b   5.49841267
_cell_length_c   7.83164628
_cell_angle_alpha   90.00002003
_cell_angle_beta   90.00001548
_cell_angle_gamma   89.99995901
_symmetry_Int_Tables_number   1
_chemical_formula_structural   HfMgO3
_chemical_formula_sum   'Hf4 Mg4 O12'
_cell_volume   229.55571424
_cell_formula_units_Z   4
loop_
 _symmetry_equiv_pos_site_id
 _symmetry_equiv_pos_as_xyz
  1  'x, y, z'
loop_
 _atom_site_type_symbol
 _atom_site_label
 _atom_site_symmetry_multiplicity
 _atom_site_fract_x
 _atom_site_fract_y
 _atom_site_fract_z
 _atom_site_occupancy
  Hf  Hf0  1  0.00000026  0.50000004  0.00000036  1.0
  Hf  Hf1  1  0.00000008  0.49999921  0.49999995  1.0
  Hf  Hf2  1  0.49999976  0.99999937  0.00000045  1.0
  Hf  Hf3  1  0.50000009  0.99999892  0.49999987  1.0
  Mg  Mg4  1  0.50180191  0.46111486  0.75000134  1.0
  Mg  Mg5  1  0.49819341  0.53888294  0.25000015  1.0
  Mg  Mg6  1  0.99820447  0.96111309  0.75000061  1.0
  Mg  Mg7  1  0.00180033  0.03888557  0.25000081  1.0
  O  O8  1  0.12982650  0.42193311  0.25000001  1.0
  O  O9  1  0.37017057  0.92193230  0.25000015  1.0
  O  O10  1  0.62983243  0.07806588  0.74999962  1.0
  O  O11  1  0.87017079  0.57806534  0.74999967  1.0
  O  O12  1  0.17079569  0.17588235  0.56949921  1.0
  O  O13  1  0.17079649  0.17588479  0.93049937  1.0
  O  O14  1  0.32920262  0.67588251  0.56949957  1.0
  O  O15  1  0.32920146  0.67588473  0.93049992  1.0
  O  O16  1  0.67079500  0.32411969  0.06949796  1.0
  O  O17  1  0.67079671  0.32411690  0.43050006  1.0
  O  O18  1  0.82920716  0.82411975  0.06949901  1.0
  O  O19  1  0.82920629  0.82411763  0.43050093  1.0
