# generated using pymatgen
data_HfZnO3
_symmetry_space_group_name_H-M   'P 1'
_cell_length_a   5.37002094
_cell_length_b   5.45225695
_cell_length_c   7.92084809
_cell_angle_alpha   90.00005683
_cell_angle_beta   89.99995521
_cell_angle_gamma   89.99897178
_symmetry_Int_Tables_number   1
_chemical_formula_structural   HfZnO3
_chemical_formula_sum   'Hf4 Zn4 O12'
_cell_volume   231.91240418
_cell_formula_units_Z   4
loop_
 _symmetry_equiv_pos_site_id
 _symmetry_equiv_pos_as_xyz
  1  'x, y, z'
loop_
 _atom_site_type_symbol
 _atom_site_label
 _atom_site_symmetry_multiplicity
 _atom_site_fract_x
 _atom_site_fract_y
 _atom_site_fract_z
 _atom_site_occupancy
  Hf  Hf0  1  0.99999962  0.50000040  0.99999978  1.0
  Hf  Hf1  1  0.99999968  0.49999959  0.50000029  1.0
  Hf  Hf2  1  0.49999996  0.99999935  0.99999975  1.0
  Hf  Hf3  1  0.50000039  0.99999889  0.50000019  1.0
  Zn  Zn4  1  0.50942681  0.47936464  0.74999947  1.0
  Zn  Zn5  1  0.49057162  0.52063258  0.25000046  1.0
  Zn  Zn6  1  0.99059819  0.97932881  0.75000086  1.0
  Zn  Zn7  1  0.00940435  0.02067277  0.24999978  1.0
  O  O8  1  0.12214781  0.41835408  0.25000012  1.0
  O  O9  1  0.37784628  0.91835729  0.25000032  1.0
  O  O10  1  0.62215709  0.08164021  0.74999967  1.0
  O  O11  1  0.87784876  0.58164235  0.74999978  1.0
  O  O12  1  0.16791440  0.17231755  0.56763354  1.0
  O  O13  1  0.16791460  0.17231883  0.93236564  1.0
  O  O14  1  0.33207660  0.67232179  0.56764033  1.0
  O  O15  1  0.33207618  0.67232279  0.93235912  1.0
  O  O16  1  0.66792018  0.32768000  0.06763858  1.0
  O  O17  1  0.66792154  0.32767835  0.43236131  1.0
  O  O18  1  0.83208899  0.82768494  0.06763254  1.0
  O  O19  1  0.83208893  0.82768378  0.43236745  1.0
