# generated using pymatgen
data_Ho2TeO6
_symmetry_space_group_name_H-M   'P 1'
_cell_length_a   9.12141086
_cell_length_b   9.12144671
_cell_length_c   5.19010822
_cell_angle_alpha   90.00017272
_cell_angle_beta   90.00032878
_cell_angle_gamma   120.00030526
_symmetry_Int_Tables_number   1
_chemical_formula_structural   Ho2TeO6
_chemical_formula_sum   'Ho6 Te3 O18'
_cell_volume   373.96542626
_cell_formula_units_Z   3
loop_
 _symmetry_equiv_pos_site_id
 _symmetry_equiv_pos_as_xyz
  1  'x, y, z'
loop_
 _atom_site_type_symbol
 _atom_site_label
 _atom_site_symmetry_multiplicity
 _atom_site_fract_x
 _atom_site_fract_y
 _atom_site_fract_z
 _atom_site_occupancy
  Ho  Ho0  1  0.00000073  0.61984330  0.00000140  1.0
  Ho  Ho1  1  0.99999736  0.28306039  0.49999985  1.0
  Ho  Ho2  1  0.38015796  0.38015841  0.99999850  1.0
  Ho  Ho3  1  0.28305916  0.00000014  0.49999775  1.0
  Ho  Ho4  1  0.71693814  0.71694130  0.49999484  1.0
  Ho  Ho5  1  0.61984201  0.00000095  0.00000561  1.0
  Te  Te6  1  0.33333333  0.66666667  0.49773755  1.0
  Te  Te7  1  0.99999261  0.00000431  0.00000292  1.0
  Te  Te8  1  0.66666667  0.33333333  0.50226177  1.0
  O  O9  1  0.07870675  0.87752605  0.78778096  1.0
  O  O10  1  0.22677008  0.76338103  0.28176209  1.0
  O  O11  1  0.13185688  0.54420089  0.71221234  1.0
  O  O12  1  0.41234394  0.86814403  0.71220513  1.0
  O  O13  1  0.23661315  0.46339126  0.28175444  1.0
  O  O14  1  0.12247460  0.20118050  0.78777678  1.0
  O  O15  1  0.20118131  0.12247763  0.21222002  1.0
  O  O16  1  0.53660406  0.77322287  0.28176043  1.0
  O  O17  1  0.45579952  0.58765426  0.71220265  1.0
  O  O18  1  0.79881577  0.92129059  0.78778163  1.0
  O  O19  1  0.46339219  0.23662019  0.71823979  1.0
  O  O20  1  0.58765745  0.45579986  0.28779008  1.0
  O  O21  1  0.54419532  0.13185556  0.28779833  1.0
  O  O22  1  0.77323201  0.53661422  0.71823851  1.0
  O  O23  1  0.92129732  0.79882062  0.21221876  1.0
  O  O24  1  0.76338401  0.22677859  0.71824297  1.0
  O  O25  1  0.86814181  0.41234276  0.28778897  1.0
  O  O26  1  0.87752368  0.07870263  0.21222492  1.0
