# generated using pymatgen
data_HoSeClO3
_symmetry_space_group_name_H-M   'P 1'
_cell_length_a   6.98837761
_cell_length_b   7.38346606
_cell_length_c   8.80934429
_cell_angle_alpha   89.99999250
_cell_angle_beta   89.99999652
_cell_angle_gamma   90.00000088
_symmetry_Int_Tables_number   1
_chemical_formula_structural   HoSeClO3
_chemical_formula_sum   'Ho4 Se4 Cl4 O12'
_cell_volume   454.54850117
_cell_formula_units_Z   4
loop_
 _symmetry_equiv_pos_site_id
 _symmetry_equiv_pos_as_xyz
  1  'x, y, z'
loop_
 _atom_site_type_symbol
 _atom_site_label
 _atom_site_symmetry_multiplicity
 _atom_site_fract_x
 _atom_site_fract_y
 _atom_site_fract_z
 _atom_site_occupancy
  Ho  Ho0  1  0.24999991  0.10140899  0.54002881  1.0
  Ho  Ho1  1  0.75000001  0.39859094  0.04002871  1.0
  Ho  Ho2  1  0.75000000  0.89859103  0.45997120  1.0
  Ho  Ho3  1  0.24999991  0.60140910  0.95997137  1.0
  Se  Se4  1  0.75000013  0.28796581  0.63257883  1.0
  Se  Se5  1  0.75000024  0.78796585  0.86742088  1.0
  Se  Se6  1  0.25000023  0.21203405  0.13257914  1.0
  Se  Se7  1  0.24999997  0.71203435  0.36742080  1.0
  Cl  Cl8  1  0.74999998  0.56729896  0.31562324  1.0
  Cl  Cl9  1  0.25000029  0.93270117  0.81562349  1.0
  Cl  Cl10  1  0.75000006  0.06729882  0.18437642  1.0
  Cl  Cl11  1  0.24999985  0.43270090  0.68437674  1.0
  O  O12  1  0.92795070  0.63868818  0.93128808  1.0
  O  O13  1  0.92795078  0.13868820  0.56871191  1.0
  O  O14  1  0.75000004  0.75112727  0.67713098  1.0
  O  O15  1  0.57204917  0.13868821  0.56871182  1.0
  O  O16  1  0.74999989  0.25112710  0.82286886  1.0
  O  O17  1  0.42795068  0.36131185  0.06871209  1.0
  O  O18  1  0.07204899  0.36131213  0.06871194  1.0
  O  O19  1  0.07204933  0.86131193  0.43128815  1.0
  O  O20  1  0.42795065  0.86131175  0.43128826  1.0
  O  O21  1  0.24999995  0.24887278  0.32286897  1.0
  O  O22  1  0.25000011  0.74887281  0.17713136  1.0
  O  O23  1  0.57204914  0.63868782  0.93128794  1.0
