# generated using pymatgen
data_In2Ge2O7
_symmetry_space_group_name_H-M   'P 1'
_cell_length_a   6.98728949
_cell_length_b   6.98729110
_cell_length_c   6.98728488
_cell_angle_alpha   59.99995725
_cell_angle_beta   60.00001840
_cell_angle_gamma   59.99996301
_symmetry_Int_Tables_number   1
_chemical_formula_structural   In2Ge2O7
_chemical_formula_sum   'In4 Ge4 O14'
_cell_volume   241.21861800
_cell_formula_units_Z   2
loop_
 _symmetry_equiv_pos_site_id
 _symmetry_equiv_pos_as_xyz
  1  'x, y, z'
loop_
 _atom_site_type_symbol
 _atom_site_label
 _atom_site_symmetry_multiplicity
 _atom_site_fract_x
 _atom_site_fract_y
 _atom_site_fract_z
 _atom_site_occupancy
  In  In0  1  0.12499995  0.62499994  0.62500014  1.0
  In  In1  1  0.62499995  0.62500032  0.62499993  1.0
  In  In2  1  0.62499982  0.12499986  0.62500002  1.0
  In  In3  1  0.62500011  0.62500004  0.12499993  1.0
  Ge  Ge4  1  0.12500011  0.62499975  0.12500011  1.0
  Ge  Ge5  1  0.12500050  0.12500010  0.62499962  1.0
  Ge  Ge6  1  0.62499961  0.12500026  0.12500020  1.0
  Ge  Ge7  1  0.12500018  0.12500006  0.12499997  1.0
  O  O8  1  0.75000019  0.75000005  0.74999983  1.0
  O  O9  1  0.20431075  0.79568914  0.79568896  1.0
  O  O10  1  0.20431060  0.79568923  0.20431087  1.0
  O  O11  1  0.79568899  0.79568871  0.20431129  1.0
  O  O12  1  0.79568937  0.20431081  0.79568887  1.0
  O  O13  1  0.20431099  0.20431074  0.79568894  1.0
  O  O14  1  0.45431104  0.04568902  0.04568906  1.0
  O  O15  1  0.79568876  0.20431088  0.20431097  1.0
  O  O16  1  0.04568903  0.04568940  0.45431081  1.0
  O  O17  1  0.45431095  0.04568829  0.45431171  1.0
  O  O18  1  0.04568905  0.45431107  0.04568894  1.0
  O  O19  1  0.45431117  0.45431112  0.04568862  1.0
  O  O20  1  0.04568880  0.45431112  0.45431111  1.0
  O  O21  1  0.50000008  0.50000010  0.50000008  1.0
