# generated using pymatgen
data_In2SO2
_symmetry_space_group_name_H-M   'P 1'
_cell_length_a   3.67230910
_cell_length_b   3.67230926
_cell_length_c   6.57316438
_cell_angle_alpha   90.00002039
_cell_angle_beta   89.99997457
_cell_angle_gamma   120.00004796
_symmetry_Int_Tables_number   1
_chemical_formula_structural   In2SO2
_chemical_formula_sum   'In2 S1 O2'
_cell_volume   76.76855951
_cell_formula_units_Z   1
loop_
 _symmetry_equiv_pos_site_id
 _symmetry_equiv_pos_as_xyz
  1  'x, y, z'
loop_
 _atom_site_type_symbol
 _atom_site_label
 _atom_site_symmetry_multiplicity
 _atom_site_fract_x
 _atom_site_fract_y
 _atom_site_fract_z
 _atom_site_occupancy
  In  In0  1  0.66666667  0.33333333  0.72192668  1.0
  In  In1  1  0.33333333  0.66666667  0.27807325  1.0
  S  S2  1  0.00000008  0.00000010  0.99999998  1.0
  O  O3  1  0.66666667  0.33333333  0.36780320  1.0
  O  O4  1  0.33333333  0.66666667  0.63219690  1.0
