# generated using pymatgen
data_InAsO4
_symmetry_space_group_name_H-M   'P 1'
_cell_length_a   5.05679414
_cell_length_b   5.05679419
_cell_length_c   6.97267283
_cell_angle_alpha   89.99993826
_cell_angle_beta   90.00006146
_cell_angle_gamma   111.89195369
_symmetry_Int_Tables_number   1
_chemical_formula_structural   InAsO4
_chemical_formula_sum   'In2 As2 O8'
_cell_volume   165.44196931
_cell_formula_units_Z   2
loop_
 _symmetry_equiv_pos_site_id
 _symmetry_equiv_pos_as_xyz
  1  'x, y, z'
loop_
 _atom_site_type_symbol
 _atom_site_label
 _atom_site_symmetry_multiplicity
 _atom_site_fract_x
 _atom_site_fract_y
 _atom_site_fract_z
 _atom_site_occupancy
  In  In0  1  0.00000000  0.00000000  0.50000000  1.0
  In  In1  1  0.00000000  0.00000000  0.00000000  1.0
  As  As2  1  0.64842403  0.35157600  0.25000073  1.0
  As  As3  1  0.35157597  0.64842400  0.74999927  1.0
  O  O4  1  0.25019140  0.74980859  0.53927099  1.0
  O  O5  1  0.74980894  0.25019107  0.03927032  1.0
  O  O6  1  0.74980859  0.25019141  0.46072901  1.0
  O  O7  1  0.25019107  0.74980894  0.96072968  1.0
  O  O8  1  0.72536753  0.77575426  0.75000004  1.0
  O  O9  1  0.27463247  0.22424574  0.24999997  1.0
  O  O10  1  0.77575426  0.72536752  0.24999996  1.0
  O  O11  1  0.22424574  0.27463249  0.75000003  1.0
