# generated using pymatgen
data_InBrO4
_symmetry_space_group_name_H-M   'P 1'
_cell_length_a   6.40965568
_cell_length_b   7.82313258
_cell_length_c   9.12922059
_cell_angle_alpha   89.99982548
_cell_angle_beta   89.99997507
_cell_angle_gamma   90.00000312
_symmetry_Int_Tables_number   1
_chemical_formula_structural   InBrO4
_chemical_formula_sum   'In4 Br4 O16'
_cell_volume   457.77185938
_cell_formula_units_Z   4
loop_
 _symmetry_equiv_pos_site_id
 _symmetry_equiv_pos_as_xyz
  1  'x, y, z'
loop_
 _atom_site_type_symbol
 _atom_site_label
 _atom_site_symmetry_multiplicity
 _atom_site_fract_x
 _atom_site_fract_y
 _atom_site_fract_z
 _atom_site_occupancy
  In  In0  1  0.25000020  0.33184475  0.68570972  1.0
  In  In1  1  0.75000012  0.66815533  0.31429025  1.0
  In  In2  1  0.75000026  0.83184489  0.81428998  1.0
  In  In3  1  0.24999992  0.16815518  0.18570989  1.0
  Br  Br4  1  0.24999944  0.82464937  0.56566871  1.0
  Br  Br5  1  0.74999979  0.17534970  0.43433176  1.0
  Br  Br6  1  0.75000046  0.32464946  0.93432760  1.0
  Br  Br7  1  0.24999951  0.67535126  0.06567241  1.0
  O  O8  1  0.53920794  0.29894145  0.42447654  1.0
  O  O9  1  0.03920073  0.70105400  0.57552390  1.0
  O  O10  1  0.46080316  0.79894789  0.07552368  1.0
  O  O11  1  0.96080370  0.20105259  0.92447620  1.0
  O  O12  1  0.46079979  0.70105432  0.57552366  1.0
  O  O13  1  0.96079111  0.29894112  0.42447610  1.0
  O  O14  1  0.53919692  0.20105211  0.92447639  1.0
  O  O15  1  0.03919667  0.79894761  0.07552379  1.0
  O  O16  1  0.25000003  0.54072004  0.20579943  1.0
  O  O17  1  0.75000002  0.45927926  0.79420084  1.0
  O  O18  1  0.74999994  0.04072637  0.29420645  1.0
  O  O19  1  0.25000004  0.95927941  0.70579919  1.0
  O  O20  1  0.24999957  0.56930639  0.90858407  1.0
  O  O21  1  0.75000041  0.43069357  0.09141539  1.0
  O  O22  1  0.75000039  0.06931277  0.59140617  1.0
  O  O23  1  0.24999988  0.93069116  0.40858791  1.0
