# generated using pymatgen
data_InClO
_symmetry_space_group_name_H-M   'P 1'
_cell_length_a   4.12906169
_cell_length_b   4.12905540
_cell_length_c   5.75673643
_cell_angle_alpha   90.00006344
_cell_angle_beta   90.00001072
_cell_angle_gamma   89.99999195
_symmetry_Int_Tables_number   1
_chemical_formula_structural   InClO
_chemical_formula_sum   'In2 Cl2 O2'
_cell_volume   98.14731592
_cell_formula_units_Z   2
loop_
 _symmetry_equiv_pos_site_id
 _symmetry_equiv_pos_as_xyz
  1  'x, y, z'
loop_
 _atom_site_type_symbol
 _atom_site_label
 _atom_site_symmetry_multiplicity
 _atom_site_fract_x
 _atom_site_fract_y
 _atom_site_fract_z
 _atom_site_occupancy
  In  In0  1  0.75000014  0.74999951  0.84177568  1.0
  In  In1  1  0.25000036  0.25000036  0.15822440  1.0
  Cl  Cl2  1  0.24999968  0.25000015  0.58920106  1.0
  Cl  Cl3  1  0.74999953  0.74999998  0.41079881  1.0
  O  O4  1  0.75000003  0.24999978  0.99999999  1.0
  O  O5  1  0.25000027  0.75000023  0.00000006  1.0
