# generated using pymatgen
data_InGaI4
_symmetry_space_group_name_H-M   'P 1'
_cell_length_a   12.00586199
_cell_length_b   7.39455921
_cell_length_c   12.58707196
_cell_angle_alpha   84.24022874
_cell_angle_beta   89.99999543
_cell_angle_gamma   89.99999920
_symmetry_Int_Tables_number   1
_chemical_formula_structural   InGaI4
_chemical_formula_sum   'In4 Ga4 I16'
_cell_volume   1111.81422874
_cell_formula_units_Z   4
loop_
 _symmetry_equiv_pos_site_id
 _symmetry_equiv_pos_as_xyz
  1  'x, y, z'
loop_
 _atom_site_type_symbol
 _atom_site_label
 _atom_site_symmetry_multiplicity
 _atom_site_fract_x
 _atom_site_fract_y
 _atom_site_fract_z
 _atom_site_occupancy
  In  In0  1  0.47991131  0.59375224  0.70743321  1.0
  In  In1  1  0.52008871  0.40624782  0.29256665  1.0
  In  In2  1  0.97991133  0.40624786  0.29256686  1.0
  In  In3  1  0.02008872  0.59375227  0.70743335  1.0
  Ga  Ga4  1  0.74999999  0.22700140  0.55651502  1.0
  Ga  Ga5  1  0.25000000  0.77299850  0.44348505  1.0
  Ga  Ga6  1  0.75000000  0.43038415  0.02783238  1.0
  Ga  Ga7  1  0.25000002  0.56961588  0.97216747  1.0
  I  I8  1  0.74999999  0.10581101  0.36768745  1.0
  I  I9  1  0.92618570  0.23028222  0.05537135  1.0
  I  I10  1  0.75000000  0.57814282  0.51440429  1.0
  I  I11  1  0.42896426  0.87818286  0.34184501  1.0
  I  I12  1  0.74999999  0.60714938  0.83924458  1.0
  I  I13  1  0.74999997  0.65886405  0.17343256  1.0
  I  I14  1  0.57381430  0.23028219  0.05537136  1.0
  I  I15  1  0.07381430  0.76971782  0.94462860  1.0
  I  I16  1  0.25000000  0.89418897  0.63231258  1.0
  I  I17  1  0.57103579  0.12181707  0.65815509  1.0
  I  I18  1  0.07103570  0.87818284  0.34184507  1.0
  I  I19  1  0.25000001  0.42185709  0.48559573  1.0
  I  I20  1  0.24999999  0.39285087  0.16075535  1.0
  I  I21  1  0.92896418  0.12181709  0.65815505  1.0
  I  I22  1  0.42618572  0.76971780  0.94462862  1.0
  I  I23  1  0.25000001  0.34113581  0.82656732  1.0
