# generated using pymatgen
data_InI2
_symmetry_space_group_name_H-M   'P 1'
_cell_length_a   12.20485048
_cell_length_b   7.57239105
_cell_length_c   13.03278674
_cell_angle_alpha   84.46113248
_cell_angle_beta   90.00000640
_cell_angle_gamma   89.99998348
_symmetry_Int_Tables_number   1
_chemical_formula_structural   InI2
_chemical_formula_sum   'In8 I16'
_cell_volume   1198.86503659
_cell_formula_units_Z   8
loop_
 _symmetry_equiv_pos_site_id
 _symmetry_equiv_pos_as_xyz
  1  'x, y, z'
loop_
 _atom_site_type_symbol
 _atom_site_label
 _atom_site_symmetry_multiplicity
 _atom_site_fract_x
 _atom_site_fract_y
 _atom_site_fract_z
 _atom_site_occupancy
  In  In0  1  0.47524377  0.59694980  0.71190371  1.0
  In  In1  1  0.52475624  0.40305015  0.28809625  1.0
  In  In2  1  0.97524360  0.40305013  0.28809634  1.0
  In  In3  1  0.02475627  0.59694994  0.71190368  1.0
  In  In4  1  0.75000000  0.23313271  0.56311032  1.0
  In  In5  1  0.25000000  0.76686736  0.43688975  1.0
  In  In6  1  0.75000008  0.43212299  0.02770314  1.0
  In  In7  1  0.24999997  0.56787696  0.97229683  1.0
  I  I8  1  0.74999993  0.11879701  0.36418899  1.0
  I  I9  1  0.93554161  0.22627064  0.06146495  1.0
  I  I10  1  0.75000017  0.59744018  0.51890384  1.0
  I  I11  1  0.43869362  0.87963142  0.33628277  1.0
  I  I12  1  0.74999998  0.59876631  0.83060717  1.0
  I  I13  1  0.74999992  0.66417062  0.18104301  1.0
  I  I14  1  0.56445852  0.22627069  0.06146488  1.0
  I  I15  1  0.06445843  0.77372940  0.93853502  1.0
  I  I16  1  0.25000000  0.88120309  0.63581110  1.0
  I  I17  1  0.56130637  0.12036862  0.66371727  1.0
  I  I18  1  0.06130638  0.87963149  0.33628283  1.0
  I  I19  1  0.24999991  0.40255989  0.48109623  1.0
  I  I20  1  0.25000001  0.40123349  0.16939273  1.0
  I  I21  1  0.93869364  0.12036844  0.66371714  1.0
  I  I22  1  0.43554149  0.77372935  0.93853506  1.0
  I  I23  1  0.25000009  0.33582934  0.81895697  1.0
