# generated using pymatgen
data_InSbO4
_symmetry_space_group_name_H-M   'P 1'
_cell_length_a   4.87932443
_cell_length_b   5.29754839
_cell_length_c   5.84596026
_cell_angle_alpha   89.99998171
_cell_angle_beta   89.99989284
_cell_angle_gamma   93.24005087
_symmetry_Int_Tables_number   1
_chemical_formula_structural   InSbO4
_chemical_formula_sum   'In2 Sb2 O8'
_cell_volume   150.86750620
_cell_formula_units_Z   2
loop_
 _symmetry_equiv_pos_site_id
 _symmetry_equiv_pos_as_xyz
  1  'x, y, z'
loop_
 _atom_site_type_symbol
 _atom_site_label
 _atom_site_symmetry_multiplicity
 _atom_site_fract_x
 _atom_site_fract_y
 _atom_site_fract_z
 _atom_site_occupancy
  In  In0  1  0.50000007  0.74999965  0.67079337  1.0
  In  In1  1  0.49999996  0.25000036  0.32920661  1.0
  Sb  Sb2  1  0.99999888  0.74999843  0.16042193  1.0
  Sb  Sb3  1  0.00000102  0.25000158  0.83957809  1.0
  O  O4  1  0.25861867  0.40511292  0.61798463  1.0
  O  O5  1  0.74138040  0.09488621  0.61798393  1.0
  O  O6  1  0.74138127  0.59488708  0.38201534  1.0
  O  O7  1  0.25861960  0.90511378  0.38201612  1.0
  O  O8  1  0.21852135  0.43834052  0.09861345  1.0
  O  O9  1  0.78147838  0.06165940  0.09861358  1.0
  O  O10  1  0.78147870  0.56165948  0.90138651  1.0
  O  O11  1  0.21852169  0.93834059  0.90138643  1.0
