# generated using pymatgen
data_K2AlF5
_symmetry_space_group_name_H-M   'P 1'
_cell_length_a   5.58722091
_cell_length_b   7.13002667
_cell_length_c   7.27116151
_cell_angle_alpha   115.49491543
_cell_angle_beta   89.99731880
_cell_angle_gamma   113.06869272
_symmetry_Int_Tables_number   1
_chemical_formula_structural   K2AlF5
_chemical_formula_sum   'K4 Al2 F10'
_cell_volume   235.53786022
_cell_formula_units_Z   2
loop_
 _symmetry_equiv_pos_site_id
 _symmetry_equiv_pos_as_xyz
  1  'x, y, z'
loop_
 _atom_site_type_symbol
 _atom_site_label
 _atom_site_symmetry_multiplicity
 _atom_site_fract_x
 _atom_site_fract_y
 _atom_site_fract_z
 _atom_site_occupancy
  K  K0  1  0.47749063  0.95497968  0.75287809  1.0
  K  K1  1  0.52250937  0.04502032  0.24712191  1.0
  K  K2  1  0.16533900  0.33068228  0.77805080  1.0
  K  K3  1  0.83466100  0.66931772  0.22194920  1.0
  Al  Al4  1  0.19206938  0.38411779  0.29134674  1.0
  Al  Al5  1  0.80793062  0.61588221  0.70865326  1.0
  F  F6  1  0.00000000  0.50000000  0.50000000  1.0
  F  F7  1  0.50000000  0.50000000  0.50000000  1.0
  F  F8  1  0.06616333  0.13234027  0.33151054  1.0
  F  F9  1  0.93383667  0.86765973  0.66848946  1.0
  F  F10  1  0.33629231  0.67251980  0.31144975  1.0
  F  F11  1  0.66370769  0.32748020  0.68855025  1.0
  F  F12  1  0.90999463  0.28391452  0.09740388  1.0
  F  F13  1  0.37394379  0.28390184  0.09740398  1.0
  F  F14  1  0.09000537  0.71608548  0.90259612  1.0
  F  F15  1  0.62605621  0.71609816  0.90259602  1.0
