# generated using pymatgen
data_K2AsO2F3
_symmetry_space_group_name_H-M   'P 1'
_cell_length_a   5.96504661
_cell_length_b   7.50488921
_cell_length_c   11.36222761
_cell_angle_alpha   89.99975445
_cell_angle_beta   90.00037100
_cell_angle_gamma   89.99779532
_symmetry_Int_Tables_number   1
_chemical_formula_structural   K2AsO2F3
_chemical_formula_sum   'K8 As4 O8 F12'
_cell_volume   508.65300142
_cell_formula_units_Z   4
loop_
 _symmetry_equiv_pos_site_id
 _symmetry_equiv_pos_as_xyz
  1  'x, y, z'
loop_
 _atom_site_type_symbol
 _atom_site_label
 _atom_site_symmetry_multiplicity
 _atom_site_fract_x
 _atom_site_fract_y
 _atom_site_fract_z
 _atom_site_occupancy
  K  K0  1  0.25000044  0.47024885  0.28810883  1.0
  K  K1  1  0.74999864  0.52975098  0.71189114  1.0
  K  K2  1  0.25000087  0.97024851  0.21189145  1.0
  K  K3  1  0.74999981  0.02975137  0.78810871  1.0
  K  K4  1  0.25000016  0.19472394  0.57682521  1.0
  K  K5  1  0.74999876  0.80527640  0.42317410  1.0
  K  K6  1  0.25000057  0.69472324  0.92317485  1.0
  K  K7  1  0.75000014  0.30527688  0.07682576  1.0
  As  As8  1  0.24995232  0.21683195  0.91790133  1.0
  As  As9  1  0.75001771  0.78315912  0.08210711  1.0
  As  As10  1  0.24999605  0.71681884  0.58209535  1.0
  As  As11  1  0.75002102  0.28316310  0.41789391  1.0
  O  O12  1  0.48807467  0.82036320  0.62052370  1.0
  O  O13  1  0.98804420  0.17965026  0.37948172  1.0
  O  O14  1  0.51194158  0.67964429  0.12052071  1.0
  O  O15  1  0.48809020  0.32037001  0.87947325  1.0
  O  O16  1  0.98804943  0.67964673  0.12051987  1.0
  O  O17  1  0.01191715  0.82036855  0.62052590  1.0
  O  O18  1  0.51193044  0.17963731  0.37947685  1.0
  O  O19  1  0.01195528  0.32035048  0.87948068  1.0
  F  F20  1  0.75000025  0.46559245  0.31027246  1.0
  F  F21  1  0.49999689  0.00000209  0.99999915  1.0
  F  F22  1  0.00000744  0.50000455  0.50000163  1.0
  F  F23  1  0.50000949  0.49999386  0.49999806  1.0
  F  F24  1  0.25000075  0.53440820  0.68972785  1.0
  F  F25  1  0.74999924  0.96559338  0.18972796  1.0
  F  F26  1  0.25000066  0.03440595  0.81027127  1.0
  F  F27  1  0.75000064  0.23220699  0.57917019  1.0
  F  F28  1  0.25000056  0.26779230  0.07916782  1.0
  F  F29  1  0.74999963  0.73220703  0.92082979  1.0
  F  F30  1  0.99999507  0.99999662  0.00000101  1.0
  F  F31  1  0.24999993  0.76779257  0.42083237  1.0
