# generated using pymatgen
data_K2GaF5
_symmetry_space_group_name_H-M   'P 1'
_cell_length_a   5.78200445
_cell_length_b   7.19002164
_cell_length_c   7.38705799
_cell_angle_alpha   115.24435142
_cell_angle_beta   90.00307926
_cell_angle_gamma   113.70742612
_symmetry_Int_Tables_number   1
_chemical_formula_structural   K2GaF5
_chemical_formula_sum   'K4 Ga2 F10'
_cell_volume   248.81549202
_cell_formula_units_Z   2
loop_
 _symmetry_equiv_pos_site_id
 _symmetry_equiv_pos_as_xyz
  1  'x, y, z'
loop_
 _atom_site_type_symbol
 _atom_site_label
 _atom_site_symmetry_multiplicity
 _atom_site_fract_x
 _atom_site_fract_y
 _atom_site_fract_z
 _atom_site_occupancy
  K  K0  1  0.47369040  0.94738211  0.74883281  1.0
  K  K1  1  0.52630969  0.05261834  0.25116691  1.0
  K  K2  1  0.16645209  0.33288848  0.77533776  1.0
  K  K3  1  0.83354774  0.66711174  0.22466285  1.0
  Ga  Ga4  1  0.18943514  0.37890420  0.28303638  1.0
  Ga  Ga5  1  0.81056495  0.62109601  0.71696392  1.0
  F  F6  1  0.99999995  0.49999975  0.49999996  1.0
  F  F7  1  0.50000022  0.50000014  0.49999984  1.0
  F  F8  1  0.05972745  0.11948419  0.33030744  1.0
  F  F9  1  0.94027315  0.88051569  0.66969262  1.0
  F  F10  1  0.34163585  0.68332302  0.31010874  1.0
  F  F11  1  0.65836393  0.31667679  0.68989096  1.0
  F  F12  1  0.90085043  0.27859813  0.08495508  1.0
  F  F13  1  0.37772032  0.27859864  0.08497426  1.0
  F  F14  1  0.09914913  0.72140141  0.91504495  1.0
  F  F15  1  0.62227957  0.72140137  0.91502553  1.0
