# generated using pymatgen
data_K2MnF5
_symmetry_space_group_name_H-M   'P 1'
_cell_length_a   5.92533351
_cell_length_b   7.15754765
_cell_length_c   7.44406094
_cell_angle_alpha   114.59728105
_cell_angle_beta   90.00292790
_cell_angle_gamma   114.44803387
_symmetry_Int_Tables_number   1
_chemical_formula_structural   K2MnF5
_chemical_formula_sum   'K4 Mn2 F10'
_cell_volume   255.59604695
_cell_formula_units_Z   2
loop_
 _symmetry_equiv_pos_site_id
 _symmetry_equiv_pos_as_xyz
  1  'x, y, z'
loop_
 _atom_site_type_symbol
 _atom_site_label
 _atom_site_symmetry_multiplicity
 _atom_site_fract_x
 _atom_site_fract_y
 _atom_site_fract_z
 _atom_site_occupancy
  K  K0  1  0.47274752  0.94545997  0.75762716  1.0
  K  K1  1  0.52730710  0.05454073  0.24237300  1.0
  K  K2  1  0.17246956  0.34497264  0.78905235  1.0
  K  K3  1  0.82752444  0.65502770  0.21094753  1.0
  Mn  Mn4  1  0.18996131  0.38000114  0.28367342  1.0
  Mn  Mn5  1  0.80996405  0.61999878  0.71632669  1.0
  F  F6  1  0.00016197  0.49991989  0.49986007  1.0
  F  F7  1  0.50024086  0.50007704  0.50013937  1.0
  F  F8  1  0.05638056  0.11258484  0.31539262  1.0
  F  F9  1  0.94368511  0.88741448  0.68460660  1.0
  F  F10  1  0.33707619  0.67424965  0.29574026  1.0
  F  F11  1  0.66295022  0.32575066  0.70426078  1.0
  F  F12  1  0.89442653  0.27589473  0.07845114  1.0
  F  F13  1  0.38129565  0.27603285  0.07868702  1.0
  F  F14  1  0.10529650  0.72402163  0.92132297  1.0
  F  F15  1  0.61851241  0.72405327  0.92153900  1.0
