# generated using pymatgen
data_K2NaNF6
_symmetry_space_group_name_H-M   'P 1'
_cell_length_a   5.80220749
_cell_length_b   5.80220820
_cell_length_c   5.80220643
_cell_angle_alpha   59.99964629
_cell_angle_beta   59.99973089
_cell_angle_gamma   59.99969077
_symmetry_Int_Tables_number   1
_chemical_formula_structural   K2NaNF6
_chemical_formula_sum   'K2 Na1 N1 F6'
_cell_volume   138.12162616
_cell_formula_units_Z   1
loop_
 _symmetry_equiv_pos_site_id
 _symmetry_equiv_pos_as_xyz
  1  'x, y, z'
loop_
 _atom_site_type_symbol
 _atom_site_label
 _atom_site_symmetry_multiplicity
 _atom_site_fract_x
 _atom_site_fract_y
 _atom_site_fract_z
 _atom_site_occupancy
  K  K0  1  0.25000019  0.24999969  0.25000037  1.0
  K  K1  1  0.74999991  0.75000061  0.74999933  1.0
  Na  Na2  1  0.49999983  0.50000005  0.50000010  1.0
  N  N3  1  0.99999977  0.00000006  0.00000014  1.0
  F  F4  1  0.22365074  0.77634964  0.77634950  1.0
  F  F5  1  0.22365046  0.77634883  0.22365083  1.0
  F  F6  1  0.77634963  0.22365092  0.77634954  1.0
  F  F7  1  0.77634943  0.77635010  0.22365049  1.0
  F  F8  1  0.22365061  0.22365013  0.77634934  1.0
  F  F9  1  0.77634943  0.22364998  0.22365035  1.0
