# generated using pymatgen
data_K2RbNF6
_symmetry_space_group_name_H-M   'P 1'
_cell_length_a   6.25275266
_cell_length_b   6.25275212
_cell_length_c   6.25275290
_cell_angle_alpha   59.99980608
_cell_angle_beta   59.99981314
_cell_angle_gamma   59.99981667
_symmetry_Int_Tables_number   1
_chemical_formula_structural   K2RbNF6
_chemical_formula_sum   'K2 Rb1 N1 F6'
_cell_volume   172.86094335
_cell_formula_units_Z   1
loop_
 _symmetry_equiv_pos_site_id
 _symmetry_equiv_pos_as_xyz
  1  'x, y, z'
loop_
 _atom_site_type_symbol
 _atom_site_label
 _atom_site_symmetry_multiplicity
 _atom_site_fract_x
 _atom_site_fract_y
 _atom_site_fract_z
 _atom_site_occupancy
  K  K0  1  0.25000004  0.25000013  0.25000020  1.0
  K  K1  1  0.74999967  0.74999983  0.75000005  1.0
  Rb  Rb2  1  0.50000004  0.50000008  0.49999993  1.0
  N  N3  1  0.00000009  0.99999992  0.00000007  1.0
  F  F4  1  0.20712051  0.79287981  0.79287973  1.0
  F  F5  1  0.20712017  0.79287948  0.20712022  1.0
  F  F6  1  0.79287986  0.20712051  0.79287967  1.0
  F  F7  1  0.79287991  0.79287973  0.20712042  1.0
  F  F8  1  0.20712023  0.20712022  0.79287949  1.0
  F  F9  1  0.79287948  0.20712029  0.20712021  1.0
