# generated using pymatgen
data_K2ScF5
_symmetry_space_group_name_H-M   'P 1'
_cell_length_a   5.96614502
_cell_length_b   7.33012535
_cell_length_c   7.53245517
_cell_angle_alpha   116.04731501
_cell_angle_beta   89.99962278
_cell_angle_gamma   114.01295496
_symmetry_Int_Tables_number   1
_chemical_formula_structural   K2ScF5
_chemical_formula_sum   'K4 Sc2 F10'
_cell_volume   263.85594867
_cell_formula_units_Z   2
loop_
 _symmetry_equiv_pos_site_id
 _symmetry_equiv_pos_as_xyz
  1  'x, y, z'
loop_
 _atom_site_type_symbol
 _atom_site_label
 _atom_site_symmetry_multiplicity
 _atom_site_fract_x
 _atom_site_fract_y
 _atom_site_fract_z
 _atom_site_occupancy
  K  K0  1  0.47635413  0.95271757  0.74813550  1.0
  K  K1  1  0.52364586  0.04728243  0.25186450  1.0
  K  K2  1  0.16549649  0.33099049  0.76873760  1.0
  K  K3  1  0.83450351  0.66900950  0.23126240  1.0
  Sc  Sc4  1  0.18605350  0.37210255  0.27510836  1.0
  Sc  Sc5  1  0.81394651  0.62789745  0.72489164  1.0
  F  F6  1  0.00000000  0.50000000  0.50000000  1.0
  F  F7  1  0.50000000  0.49999999  0.50000000  1.0
  F  F8  1  0.05323039  0.10651262  0.33035450  1.0
  F  F9  1  0.94676961  0.89348739  0.66964550  1.0
  F  F10  1  0.34694076  0.69392718  0.31310448  1.0
  F  F11  1  0.65305925  0.30607283  0.68689553  1.0
  F  F12  1  0.89133439  0.27140813  0.07104487  1.0
  F  F13  1  0.38011594  0.27141183  0.07106254  1.0
  F  F14  1  0.10866560  0.72859187  0.92895513  1.0
  F  F15  1  0.61988406  0.72858818  0.92893746  1.0
