# generated using pymatgen
data_K2TlNF6
_symmetry_space_group_name_H-M   'P 1'
_cell_length_a   6.14776716
_cell_length_b   6.14776819
_cell_length_c   6.14776867
_cell_angle_alpha   59.99969878
_cell_angle_beta   59.99971651
_cell_angle_gamma   59.99970335
_symmetry_Int_Tables_number   1
_chemical_formula_structural   K2TlNF6
_chemical_formula_sum   'K2 Tl1 N1 F6'
_cell_volume   164.29884898
_cell_formula_units_Z   1
loop_
 _symmetry_equiv_pos_site_id
 _symmetry_equiv_pos_as_xyz
  1  'x, y, z'
loop_
 _atom_site_type_symbol
 _atom_site_label
 _atom_site_symmetry_multiplicity
 _atom_site_fract_x
 _atom_site_fract_y
 _atom_site_fract_z
 _atom_site_occupancy
  K  K0  1  0.24999923  0.24999987  0.25000101  1.0
  K  K1  1  0.75000044  0.74999981  0.74999861  1.0
  Tl  Tl2  1  0.50000000  0.50000004  0.50000007  1.0
  N  N3  1  0.99999996  0.99999998  0.99999976  1.0
  F  F4  1  0.21470647  0.78529400  0.78529404  1.0
  F  F5  1  0.21470634  0.78529335  0.21470613  1.0
  F  F6  1  0.78529388  0.21470667  0.78529401  1.0
  F  F7  1  0.78529390  0.78529395  0.21470665  1.0
  F  F8  1  0.21470634  0.21470607  0.78529348  1.0
  F  F9  1  0.78529343  0.21470626  0.21470624  1.0
