# generated using pymatgen
data_K2VF5
_symmetry_space_group_name_H-M   'P 1'
_cell_length_a   5.87184588
_cell_length_b   7.23317160
_cell_length_c   7.43082685
_cell_angle_alpha   115.51201831
_cell_angle_beta   90.00337254
_cell_angle_gamma   113.94489831
_symmetry_Int_Tables_number   1
_chemical_formula_structural   K2VF5
_chemical_formula_sum   'K4 V2 F10'
_cell_volume   254.39916902
_cell_formula_units_Z   2
loop_
 _symmetry_equiv_pos_site_id
 _symmetry_equiv_pos_as_xyz
  1  'x, y, z'
loop_
 _atom_site_type_symbol
 _atom_site_label
 _atom_site_symmetry_multiplicity
 _atom_site_fract_x
 _atom_site_fract_y
 _atom_site_fract_z
 _atom_site_occupancy
  K  K0  1  0.47378286  0.94756801  0.74972263  1.0
  K  K1  1  0.52621714  0.05243199  0.25027738  1.0
  K  K2  1  0.16732953  0.33463646  0.77325126  1.0
  K  K3  1  0.83267047  0.66536354  0.22674874  1.0
  V  V4  1  0.18881223  0.37763288  0.28143002  1.0
  V  V5  1  0.81118778  0.62236712  0.71856998  1.0
  F  F6  1  0.00000001  0.50000000  0.50000001  1.0
  F  F7  1  0.49999999  0.49999999  0.50000000  1.0
  F  F8  1  0.05718434  0.11429052  0.33177860  1.0
  F  F9  1  0.94281566  0.88570947  0.66822138  1.0
  F  F10  1  0.34463199  0.68923065  0.31219307  1.0
  F  F11  1  0.65536802  0.31076936  0.68780693  1.0
  F  F12  1  0.89759962  0.27396698  0.07569821  1.0
  F  F13  1  0.37637940  0.27398086  0.07572964  1.0
  F  F14  1  0.10240039  0.72603302  0.92430180  1.0
  F  F15  1  0.62362061  0.72601914  0.92427036  1.0
