# generated using pymatgen
data_KCeO2
_symmetry_space_group_name_H-M   'P 1'
_cell_length_a   6.61840259
_cell_length_b   6.61840039
_cell_length_c   6.61839382
_cell_angle_alpha   32.03622218
_cell_angle_beta   32.03622496
_cell_angle_gamma   32.03620321
_symmetry_Int_Tables_number   1
_chemical_formula_structural   KCeO2
_chemical_formula_sum   'K1 Ce1 O2'
_cell_volume   72.48288310
_cell_formula_units_Z   1
loop_
 _symmetry_equiv_pos_site_id
 _symmetry_equiv_pos_as_xyz
  1  'x, y, z'
loop_
 _atom_site_type_symbol
 _atom_site_label
 _atom_site_symmetry_multiplicity
 _atom_site_fract_x
 _atom_site_fract_y
 _atom_site_fract_z
 _atom_site_occupancy
  K  K0  1  0.99999998  0.99999995  0.00000005  1.0
  Ce  Ce1  1  0.49999986  0.49999996  0.49999962  1.0
  O  O2  1  0.23018100  0.23018122  0.23018053  1.0
  O  O3  1  0.76981915  0.76981887  0.76981980  1.0
