# generated using pymatgen
data_KGaS2
_symmetry_space_group_name_H-M   'P 1'
_cell_length_a   6.52079044
_cell_length_b   6.52360236
_cell_length_c   10.05185919
_cell_angle_alpha   90.00001902
_cell_angle_beta   90.01378257
_cell_angle_gamma   89.99997285
_symmetry_Int_Tables_number   1
_chemical_formula_structural   KGaS2
_chemical_formula_sum   'K4 Ga4 S8'
_cell_volume   427.59646702
_cell_formula_units_Z   4
loop_
 _symmetry_equiv_pos_site_id
 _symmetry_equiv_pos_as_xyz
  1  'x, y, z'
loop_
 _atom_site_type_symbol
 _atom_site_label
 _atom_site_symmetry_multiplicity
 _atom_site_fract_x
 _atom_site_fract_y
 _atom_site_fract_z
 _atom_site_occupancy
  K  K0  1  0.57893114  0.52869538  0.12027097  1.0
  K  K1  1  0.07893115  0.97130455  0.62027084  1.0
  K  K2  1  0.57892432  0.02870018  0.37974296  1.0
  K  K3  1  0.07892446  0.47129985  0.87974285  1.0
  Ga  Ga4  1  0.62806039  0.54522857  0.62551790  1.0
  Ga  Ga5  1  0.12805207  0.45477288  0.37448632  1.0
  Ga  Ga6  1  0.12806051  0.95477140  0.12551789  1.0
  Ga  Ga7  1  0.62805215  0.04522707  0.87448634  1.0
  S  S8  1  0.97375478  0.99370029  0.92018942  1.0
  S  S9  1  0.97377662  0.49369241  0.57980554  1.0
  S  S10  1  0.47377673  0.00630768  0.07980559  1.0
  S  S11  1  0.47375460  0.50629970  0.42018947  1.0
  S  S12  1  0.55545445  0.88644298  0.67615187  1.0
  S  S13  1  0.05546388  0.11354842  0.32383508  1.0
  S  S14  1  0.05545463  0.61355700  0.17615181  1.0
  S  S15  1  0.55546408  0.38645165  0.82383514  1.0
