# generated using pymatgen
data_KGdO2
_symmetry_space_group_name_H-M   'P 1'
_cell_length_a   6.59294382
_cell_length_b   6.59309851
_cell_length_c   6.59302537
_cell_angle_alpha   31.18488247
_cell_angle_beta   31.18420778
_cell_angle_gamma   31.18535405
_symmetry_Int_Tables_number   1
_chemical_formula_structural   KGdO2
_chemical_formula_sum   'K1 Gd1 O2'
_cell_volume   68.18391844
_cell_formula_units_Z   1
loop_
 _symmetry_equiv_pos_site_id
 _symmetry_equiv_pos_as_xyz
  1  'x, y, z'
loop_
 _atom_site_type_symbol
 _atom_site_label
 _atom_site_symmetry_multiplicity
 _atom_site_fract_x
 _atom_site_fract_y
 _atom_site_fract_z
 _atom_site_occupancy
  K  K0  1  0.00000125  0.99999863  0.00000046  1.0
  Gd  Gd1  1  0.49999895  0.50000166  0.49999919  1.0
  O  O2  1  0.77074257  0.77071884  0.77078086  1.0
  O  O3  1  0.22925723  0.22928087  0.22921949  1.0
