# generated using pymatgen
data_KInO2
_symmetry_space_group_name_H-M   'P 1'
_cell_length_a   6.46716799
_cell_length_b   6.46716814
_cell_length_c   6.46716816
_cell_angle_alpha   30.13750638
_cell_angle_beta   30.13751318
_cell_angle_gamma   30.13750109
_symmetry_Int_Tables_number   1
_chemical_formula_structural   KInO2
_chemical_formula_sum   'K1 In1 O2'
_cell_volume   60.40857745
_cell_formula_units_Z   1
loop_
 _symmetry_equiv_pos_site_id
 _symmetry_equiv_pos_as_xyz
  1  'x, y, z'
loop_
 _atom_site_type_symbol
 _atom_site_label
 _atom_site_symmetry_multiplicity
 _atom_site_fract_x
 _atom_site_fract_y
 _atom_site_fract_z
 _atom_site_occupancy
  K  K0  1  0.00000022  0.99999962  0.00000007  1.0
  In  In1  1  0.49999989  0.50000013  0.49999995  1.0
  O  O2  1  0.22901115  0.22901133  0.22901122  1.0
  O  O3  1  0.77098874  0.77098892  0.77098877  1.0
