# generated using pymatgen
data_KInSiO4
_symmetry_space_group_name_H-M   'P 1'
_cell_length_a   5.36594735
_cell_length_b   6.64212184
_cell_length_c   10.91424660
_cell_angle_alpha   90.00000049
_cell_angle_beta   90.00000010
_cell_angle_gamma   89.99999970
_symmetry_Int_Tables_number   1
_chemical_formula_structural   KInSiO4
_chemical_formula_sum   'K4 In4 Si4 O16'
_cell_volume   388.99767634
_cell_formula_units_Z   4
loop_
 _symmetry_equiv_pos_site_id
 _symmetry_equiv_pos_as_xyz
  1  'x, y, z'
loop_
 _atom_site_type_symbol
 _atom_site_label
 _atom_site_symmetry_multiplicity
 _atom_site_fract_x
 _atom_site_fract_y
 _atom_site_fract_z
 _atom_site_occupancy
  K  K0  1  0.99999999  0.99999999  0.00000000  1.0
  K  K1  1  0.49999999  0.00000001  0.50000001  1.0
  K  K2  1  0.99999999  0.49999999  0.99999999  1.0
  K  K3  1  0.50000000  0.50000002  0.49999999  1.0
  In  In4  1  0.99505738  0.75000000  0.28540054  1.0
  In  In5  1  0.50494262  0.74999999  0.78540056  1.0
  In  In6  1  0.00494263  0.25000000  0.71459945  1.0
  In  In7  1  0.49505739  0.25000000  0.21459944  1.0
  Si  Si8  1  0.53858168  0.75000000  0.11773241  1.0
  Si  Si9  1  0.96141830  0.75000000  0.61773241  1.0
  Si  Si10  1  0.46141831  0.25000000  0.88226759  1.0
  Si  Si11  1  0.03858171  0.25000000  0.38226759  1.0
  O  O12  1  0.81747289  0.55881968  0.68786501  1.0
  O  O13  1  0.18252710  0.44118032  0.31213498  1.0
  O  O14  1  0.68252707  0.55881967  0.18786502  1.0
  O  O15  1  0.81747292  0.94118026  0.68786511  1.0
  O  O16  1  0.31747292  0.05881973  0.81213491  1.0
  O  O17  1  0.76192887  0.25000001  0.86638336  1.0
  O  O18  1  0.31747293  0.44118033  0.81213498  1.0
  O  O19  1  0.18252709  0.05881975  0.31213489  1.0
  O  O20  1  0.23807112  0.74999998  0.13361663  1.0
  O  O21  1  0.73807115  0.25000000  0.36638337  1.0
  O  O22  1  0.61190745  0.75000005  0.97054850  1.0
  O  O23  1  0.26192884  0.75000000  0.63361664  1.0
  O  O24  1  0.88809255  0.75000006  0.47054849  1.0
  O  O25  1  0.11190746  0.24999995  0.52945151  1.0
  O  O26  1  0.38809256  0.24999995  0.02945150  1.0
  O  O27  1  0.68252706  0.94118027  0.18786510  1.0
