# generated using pymatgen
data_KInTe3O8
_symmetry_space_group_name_H-M   'P 1'
_cell_length_a   5.84487553
_cell_length_b   7.58895869
_cell_length_c   11.23840662
_cell_angle_alpha   100.38678076
_cell_angle_beta   89.70669045
_cell_angle_gamma   108.23197839
_symmetry_Int_Tables_number   1
_chemical_formula_structural   KInTe3O8
_chemical_formula_sum   'K2 In2 Te6 O16'
_cell_volume   465.00981854
_cell_formula_units_Z   2
loop_
 _symmetry_equiv_pos_site_id
 _symmetry_equiv_pos_as_xyz
  1  'x, y, z'
loop_
 _atom_site_type_symbol
 _atom_site_label
 _atom_site_symmetry_multiplicity
 _atom_site_fract_x
 _atom_site_fract_y
 _atom_site_fract_z
 _atom_site_occupancy
  K  K0  1  0.84423387  0.12062628  0.17104494  1.0
  K  K1  1  0.15576613  0.87937377  0.82895503  1.0
  In  In2  1  0.49999999  0.49999998  0.00000005  1.0
  In  In3  1  0.00000002  0.50000007  0.50000001  1.0
  Te  Te4  1  0.22259574  0.99298928  0.41694037  1.0
  Te  Te5  1  0.77740427  0.00701074  0.58305964  1.0
  Te  Te6  1  0.06474005  0.67663871  0.14676402  1.0
  Te  Te7  1  0.93525996  0.32336132  0.85323595  1.0
  Te  Te8  1  0.51590170  0.52704386  0.33586990  1.0
  Te  Te9  1  0.48409836  0.47295615  0.66413011  1.0
  O  O10  1  0.18979130  0.73452901  0.41373167  1.0
  O  O11  1  0.81020868  0.26547098  0.58626829  1.0
  O  O12  1  0.23673664  0.93500101  0.22707791  1.0
  O  O13  1  0.76326323  0.06499901  0.77292208  1.0
  O  O14  1  0.88763253  0.97084323  0.39524401  1.0
  O  O15  1  0.11236749  0.02915675  0.60475598  1.0
  O  O16  1  0.25595145  0.67634775  0.00919369  1.0
  O  O17  1  0.74404847  0.32365211  0.99080623  1.0
  O  O18  1  0.81202220  0.74203435  0.07966980  1.0
  O  O19  1  0.18797768  0.25796566  0.92033025  1.0
  O  O20  1  0.37855572  0.42990138  0.17524868  1.0
  O  O21  1  0.62144428  0.57009854  0.82475133  1.0
  O  O22  1  0.25632308  0.36646597  0.41109136  1.0
  O  O23  1  0.74367710  0.63353406  0.58890868  1.0
  O  O24  1  0.73626160  0.38873198  0.34036837  1.0
  O  O25  1  0.26373847  0.61126804  0.65963167  1.0
