# generated using pymatgen
data_KLaO2
_symmetry_space_group_name_H-M   'P 1'
_cell_length_a   6.64678316
_cell_length_b   6.64678359
_cell_length_c   6.64678363
_cell_angle_alpha   32.55828639
_cell_angle_beta   32.55828644
_cell_angle_gamma   32.55828822
_symmetry_Int_Tables_number   1
_chemical_formula_structural   KLaO2
_chemical_formula_sum   'K1 La1 O2'
_cell_volume   75.62967934
_cell_formula_units_Z   1
loop_
 _symmetry_equiv_pos_site_id
 _symmetry_equiv_pos_as_xyz
  1  'x, y, z'
loop_
 _atom_site_type_symbol
 _atom_site_label
 _atom_site_symmetry_multiplicity
 _atom_site_fract_x
 _atom_site_fract_y
 _atom_site_fract_z
 _atom_site_occupancy
  K  K0  1  0.00000001  0.00000002  0.99999997  1.0
  La  La1  1  0.50000000  0.49999999  0.50000000  1.0
  O  O2  1  0.23044974  0.23044977  0.23044970  1.0
  O  O3  1  0.76955025  0.76955023  0.76955032  1.0
