# generated using pymatgen
data_KRb2CoF6
_symmetry_space_group_name_H-M   'P 1'
_cell_length_a   6.31828846
_cell_length_b   6.31745642
_cell_length_c   6.31905999
_cell_angle_alpha   60.54200451
_cell_angle_beta   60.53603466
_cell_angle_gamma   60.54802339
_symmetry_Int_Tables_number   1
_chemical_formula_structural   KRb2CoF6
_chemical_formula_sum   'K1 Rb2 Co1 F6'
_cell_volume   180.53663779
_cell_formula_units_Z   1
loop_
 _symmetry_equiv_pos_site_id
 _symmetry_equiv_pos_as_xyz
  1  'x, y, z'
loop_
 _atom_site_type_symbol
 _atom_site_label
 _atom_site_symmetry_multiplicity
 _atom_site_fract_x
 _atom_site_fract_y
 _atom_site_fract_z
 _atom_site_occupancy
  K  K0  1  0.50000001  0.49999996  0.50000003  1.0
  Rb  Rb1  1  0.75008024  0.75007843  0.75008200  1.0
  Rb  Rb2  1  0.24991977  0.24992156  0.24991798  1.0
  Co  Co3  1  0.99999999  0.00000001  0.00000000  1.0
  F  F4  1  0.78420188  0.21790048  0.78418303  1.0
  F  F5  1  0.78213328  0.21573786  0.21577740  1.0
  F  F6  1  0.78427873  0.78430022  0.21783187  1.0
  F  F7  1  0.21786672  0.78426214  0.78422261  1.0
  F  F8  1  0.21572127  0.21569980  0.78216812  1.0
  F  F9  1  0.21579811  0.78209955  0.21581698  1.0
