# generated using pymatgen
data_KRb2Cl3
_symmetry_space_group_name_H-M   'P 1'
_cell_length_a   4.56275095
_cell_length_b   10.71384015
_cell_length_c   18.01135420
_cell_angle_alpha   90.00002175
_cell_angle_beta   90.00000674
_cell_angle_gamma   90.00000013
_symmetry_Int_Tables_number   1
_chemical_formula_structural   KRb2Cl3
_chemical_formula_sum   'K4 Rb8 Cl12'
_cell_volume   880.47756315
_cell_formula_units_Z   4
loop_
 _symmetry_equiv_pos_site_id
 _symmetry_equiv_pos_as_xyz
  1  'x, y, z'
loop_
 _atom_site_type_symbol
 _atom_site_label
 _atom_site_symmetry_multiplicity
 _atom_site_fract_x
 _atom_site_fract_y
 _atom_site_fract_z
 _atom_site_occupancy
  K  K0  1  0.24999949  0.41328953  0.40850689  1.0
  K  K1  1  0.75000077  0.58671049  0.59149303  1.0
  K  K2  1  0.24999984  0.91328998  0.09149316  1.0
  K  K3  1  0.75000015  0.08671007  0.90850701  1.0
  Rb  Rb4  1  0.75000023  0.61570940  0.22284254  1.0
  Rb  Rb5  1  0.75000009  0.16898797  0.56192557  1.0
  Rb  Rb6  1  0.25000013  0.33101214  0.06192526  1.0
  Rb  Rb7  1  0.74999980  0.66898805  0.93807465  1.0
  Rb  Rb8  1  0.74999987  0.11570971  0.27715739  1.0
  Rb  Rb9  1  0.24999991  0.88429002  0.72284273  1.0
  Rb  Rb10  1  0.24999992  0.38429029  0.77715733  1.0
  Rb  Rb11  1  0.24999986  0.83101194  0.43807446  1.0
  Cl  Cl12  1  0.74999965  0.60270362  0.41457316  1.0
  Cl  Cl13  1  0.25000048  0.39729635  0.58542673  1.0
  Cl  Cl14  1  0.74999990  0.10270411  0.08542674  1.0
  Cl  Cl15  1  0.24999998  0.89729613  0.91457340  1.0
  Cl  Cl16  1  0.25000007  0.36494541  0.24259431  1.0
  Cl  Cl17  1  0.75000000  0.63505450  0.75740564  1.0
  Cl  Cl18  1  0.25000005  0.86494572  0.25740555  1.0
  Cl  Cl19  1  0.74999983  0.13505433  0.74259451  1.0
  Cl  Cl20  1  0.24999979  0.13214726  0.42451486  1.0
  Cl  Cl21  1  0.75000000  0.36785244  0.92451484  1.0
  Cl  Cl22  1  0.25000012  0.63214782  0.07548512  1.0
  Cl  Cl23  1  0.75000008  0.86785271  0.57548512  1.0
