# generated using pymatgen
data_KRbCrO4
_symmetry_space_group_name_H-M   'P 1'
_cell_length_a   5.84492252
_cell_length_b   5.84491922
_cell_length_c   9.59148066
_cell_angle_alpha   90.00000078
_cell_angle_beta   89.99999640
_cell_angle_gamma   120.00021654
_symmetry_Int_Tables_number   1
_chemical_formula_structural   KRbCrO4
_chemical_formula_sum   'K2 Rb2 Cr2 O8'
_cell_volume   283.77400619
_cell_formula_units_Z   2
loop_
 _symmetry_equiv_pos_site_id
 _symmetry_equiv_pos_as_xyz
  1  'x, y, z'
loop_
 _atom_site_type_symbol
 _atom_site_label
 _atom_site_symmetry_multiplicity
 _atom_site_fract_x
 _atom_site_fract_y
 _atom_site_fract_z
 _atom_site_occupancy
  K  K0  1  0.66666667  0.33333333  0.72297668  1.0
  K  K1  1  0.33333333  0.66666667  0.22297631  1.0
  Rb  Rb2  1  0.00000045  0.00000003  0.48608270  1.0
  Rb  Rb3  1  0.99999973  0.00000024  0.98608288  1.0
  Cr  Cr4  1  0.33333333  0.66666667  0.78696286  1.0
  Cr  Cr5  1  0.66666667  0.33333333  0.28696271  1.0
  O  O6  1  0.80892213  0.16644554  0.23073634  1.0
  O  O7  1  0.83355567  0.64247883  0.23073671  1.0
  O  O8  1  0.64247661  0.80892294  0.73073650  1.0
  O  O9  1  0.19107731  0.83355328  0.73073661  1.0
  O  O10  1  0.66666667  0.33333333  0.46016877  1.0
  O  O11  1  0.16644549  0.35752251  0.73073660  1.0
  O  O12  1  0.35752221  0.19107769  0.23073673  1.0
  O  O13  1  0.33333333  0.66666667  0.96016764  1.0
