# generated using pymatgen
data_KSiBiO4
_symmetry_space_group_name_H-M   'P 1'
_cell_length_a   6.49212359
_cell_length_b   7.23635341
_cell_length_c   10.05454515
_cell_angle_alpha   90.00002805
_cell_angle_beta   89.99993179
_cell_angle_gamma   89.99989790
_symmetry_Int_Tables_number   1
_chemical_formula_structural   KSiBiO4
_chemical_formula_sum   'K4 Si4 Bi4 O16'
_cell_volume   472.35549979
_cell_formula_units_Z   4
loop_
 _symmetry_equiv_pos_site_id
 _symmetry_equiv_pos_as_xyz
  1  'x, y, z'
loop_
 _atom_site_type_symbol
 _atom_site_label
 _atom_site_symmetry_multiplicity
 _atom_site_fract_x
 _atom_site_fract_y
 _atom_site_fract_z
 _atom_site_occupancy
  K  K0  1  0.00000002  0.99999996  0.99999999  1.0
  K  K1  1  0.00000003  0.50000001  0.00000001  1.0
  K  K2  1  0.49999999  0.50000005  0.49999999  1.0
  K  K3  1  0.49999996  0.00000000  0.50000000  1.0
  Si  Si4  1  0.97772421  0.75000164  0.66464667  1.0
  Si  Si5  1  0.52227456  0.74999624  0.16464801  1.0
  Si  Si6  1  0.47772335  0.25000157  0.83535250  1.0
  Si  Si7  1  0.02227797  0.25000278  0.33535383  1.0
  Bi  Bi8  1  0.90389330  0.24999981  0.65002386  1.0
  Bi  Bi9  1  0.59610677  0.25000063  0.15002388  1.0
  Bi  Bi10  1  0.40389312  0.74999977  0.84997608  1.0
  Bi  Bi11  1  0.09610679  0.74999948  0.34997611  1.0
  O  O12  1  0.91800337  0.24999977  0.18464776  1.0
  O  O13  1  0.67751067  0.24999992  0.94191858  1.0
  O  O14  1  0.66294259  0.93496268  0.14500221  1.0
  O  O15  1  0.66294000  0.56504050  0.14500264  1.0
  O  O16  1  0.83705974  0.93495976  0.64500260  1.0
  O  O17  1  0.83705853  0.56503872  0.64500250  1.0
  O  O18  1  0.82248947  0.24999993  0.44191826  1.0
  O  O19  1  0.58199586  0.24999997  0.68464868  1.0
  O  O20  1  0.41800464  0.75000021  0.31535085  1.0
  O  O21  1  0.17751003  0.75000000  0.55808195  1.0
  O  O22  1  0.33705986  0.43495961  0.85499736  1.0
  O  O23  1  0.33705876  0.06503910  0.85499762  1.0
  O  O24  1  0.16294115  0.06503920  0.35499751  1.0
  O  O25  1  0.16293931  0.43495848  0.35499721  1.0
  O  O26  1  0.08199613  0.75000006  0.81535177  1.0
  O  O27  1  0.32248980  0.75000014  0.05808161  1.0
