# generated using pymatgen
data_KSiBi3O7
_symmetry_space_group_name_H-M   'P 1'
_cell_length_a   9.34988914
_cell_length_b   9.34989263
_cell_length_c   5.20734231
_cell_angle_alpha   90.00000549
_cell_angle_beta   89.99999358
_cell_angle_gamma   120.00015734
_symmetry_Int_Tables_number   1
_chemical_formula_structural   KSiBi3O7
_chemical_formula_sum   'K2 Si2 Bi6 O14'
_cell_volume   394.23861075
_cell_formula_units_Z   2
loop_
 _symmetry_equiv_pos_site_id
 _symmetry_equiv_pos_as_xyz
  1  'x, y, z'
loop_
 _atom_site_type_symbol
 _atom_site_label
 _atom_site_symmetry_multiplicity
 _atom_site_fract_x
 _atom_site_fract_y
 _atom_site_fract_z
 _atom_site_occupancy
  K  K0  1  0.00000024  0.00000050  0.22358170  1.0
  K  K1  1  0.99999974  0.99999944  0.72358200  1.0
  Si  Si2  1  0.33333333  0.66666667  0.08060876  1.0
  Si  Si3  1  0.66666667  0.33333333  0.58060651  1.0
  Bi  Bi4  1  0.11458739  0.71688204  0.65957024  1.0
  Bi  Bi5  1  0.28311797  0.39770570  0.65956948  1.0
  Bi  Bi6  1  0.60229422  0.88541227  0.65956927  1.0
  Bi  Bi7  1  0.39770548  0.11458753  0.15956955  1.0
  Bi  Bi8  1  0.71688206  0.60229466  0.15956976  1.0
  Bi  Bi9  1  0.88541286  0.28311807  0.15957044  1.0
  O  O10  1  0.21842581  0.95681999  0.46698076  1.0
  O  O11  1  0.17166434  0.50266402  0.94699311  1.0
  O  O12  1  0.33100061  0.82833517  0.94699261  1.0
  O  O13  1  0.33333333  0.66666667  0.39298004  1.0
  O  O14  1  0.04317942  0.26160574  0.46698048  1.0
  O  O15  1  0.49733533  0.66899984  0.94699238  1.0
  O  O16  1  0.26160597  0.21842615  0.96698049  1.0
  O  O17  1  0.73839409  0.78157367  0.46698033  1.0
  O  O18  1  0.50266533  0.33100030  0.44699302  1.0
  O  O19  1  0.95682057  0.73839420  0.96698053  1.0
  O  O20  1  0.66666667  0.33333333  0.89298063  1.0
  O  O21  1  0.66899920  0.17166521  0.44699323  1.0
  O  O22  1  0.82833517  0.49733541  0.44699386  1.0
  O  O23  1  0.78157426  0.04318004  0.96698079  1.0
