# generated using pymatgen
data_KTiO2
_symmetry_space_group_name_H-M   'P 1'
_cell_length_a   6.36899783
_cell_length_b   6.36899796
_cell_length_c   6.36899793
_cell_angle_alpha   28.37439469
_cell_angle_beta   28.37439525
_cell_angle_gamma   28.37439826
_symmetry_Int_Tables_number   1
_chemical_formula_structural   KTiO2
_chemical_formula_sum   'K1 Ti1 O2'
_cell_volume   51.56201727
_cell_formula_units_Z   1
loop_
 _symmetry_equiv_pos_site_id
 _symmetry_equiv_pos_as_xyz
  1  'x, y, z'
loop_
 _atom_site_type_symbol
 _atom_site_label
 _atom_site_symmetry_multiplicity
 _atom_site_fract_x
 _atom_site_fract_y
 _atom_site_fract_z
 _atom_site_occupancy
  K  K0  1  0.00000018  0.00000009  0.99999974  1.0
  Ti  Ti1  1  0.49999994  0.49999997  0.50000008  1.0
  O  O2  1  0.22546805  0.22546796  0.22546789  1.0
  O  O3  1  0.77453182  0.77453198  0.77453228  1.0
