# generated using pymatgen
data_KTl2NF6
_symmetry_space_group_name_H-M   'P 1'
_cell_length_a   6.19991642
_cell_length_b   6.19991695
_cell_length_c   6.19991663
_cell_angle_alpha   59.99971733
_cell_angle_beta   59.99971399
_cell_angle_gamma   59.99972052
_symmetry_Int_Tables_number   1
_chemical_formula_structural   KTl2NF6
_chemical_formula_sum   'K1 Tl2 N1 F6'
_cell_volume   168.51546955
_cell_formula_units_Z   1
loop_
 _symmetry_equiv_pos_site_id
 _symmetry_equiv_pos_as_xyz
  1  'x, y, z'
loop_
 _atom_site_type_symbol
 _atom_site_label
 _atom_site_symmetry_multiplicity
 _atom_site_fract_x
 _atom_site_fract_y
 _atom_site_fract_z
 _atom_site_occupancy
  K  K0  1  0.50000006  0.50000004  0.49999990  1.0
  Tl  Tl1  1  0.25000022  0.25000018  0.25000003  1.0
  Tl  Tl2  1  0.74999991  0.74999985  0.74999995  1.0
  N  N3  1  0.99999932  0.00000002  0.00000028  1.0
  F  F4  1  0.20969662  0.79030423  0.79030431  1.0
  F  F5  1  0.20969569  0.79030336  0.20969576  1.0
  F  F6  1  0.79030442  0.20969640  0.79030451  1.0
  F  F7  1  0.79030451  0.79030458  0.20969638  1.0
  F  F8  1  0.20969580  0.20969577  0.79030329  1.0
  F  F9  1  0.79030346  0.20969557  0.20969560  1.0
