# generated using pymatgen
data_KVO2
_symmetry_space_group_name_H-M   'P 1'
_cell_length_a   6.31210778
_cell_length_b   6.32816943
_cell_length_c   6.32640836
_cell_angle_alpha   29.38357701
_cell_angle_beta   28.66454786
_cell_angle_gamma   28.69630679
_symmetry_Int_Tables_number   1
_chemical_formula_structural   KVO2
_chemical_formula_sum   'K1 V1 O2'
_cell_volume   52.22533425
_cell_formula_units_Z   1
loop_
 _symmetry_equiv_pos_site_id
 _symmetry_equiv_pos_as_xyz
  1  'x, y, z'
loop_
 _atom_site_type_symbol
 _atom_site_label
 _atom_site_symmetry_multiplicity
 _atom_site_fract_x
 _atom_site_fract_y
 _atom_site_fract_z
 _atom_site_occupancy
  K  K0  1  0.00000003  0.00000007  0.99999982  1.0
  V  V1  1  0.50000015  0.50000004  0.50000015  1.0
  O  O2  1  0.21653296  0.22853929  0.22825064  1.0
  O  O3  1  0.78346685  0.77146060  0.77174938  1.0
