# generated using pymatgen
data_KVO3
_symmetry_space_group_name_H-M   'P 1'
_cell_length_a   7.54617074
_cell_length_b   7.54616313
_cell_length_c   6.10789835
_cell_angle_alpha   76.86302567
_cell_angle_beta   76.86370495
_cell_angle_gamma   79.89786786
_symmetry_Int_Tables_number   1
_chemical_formula_structural   KVO3
_chemical_formula_sum   'K4 V4 O12'
_cell_volume   327.02602609
_cell_formula_units_Z   4
loop_
 _symmetry_equiv_pos_site_id
 _symmetry_equiv_pos_as_xyz
  1  'x, y, z'
loop_
 _atom_site_type_symbol
 _atom_site_label
 _atom_site_symmetry_multiplicity
 _atom_site_fract_x
 _atom_site_fract_y
 _atom_site_fract_z
 _atom_site_occupancy
  K  K0  1  0.09905372  0.90094478  0.74999814  1.0
  K  K1  1  0.90094704  0.09905594  0.24999993  1.0
  K  K2  1  0.68855950  0.31143923  0.75000103  1.0
  K  K3  1  0.31144179  0.68855732  0.24999979  1.0
  V  V4  1  0.19959205  0.36889829  0.74450537  1.0
  V  V5  1  0.36890227  0.19958381  0.24451297  1.0
  V  V6  1  0.80040985  0.63110200  0.25548314  1.0
  V  V7  1  0.63109935  0.80041321  0.75549661  1.0
  O  O8  1  0.64262378  0.68051066  0.51904863  1.0
  O  O9  1  0.35736363  0.31950382  0.48097680  1.0
  O  O10  1  0.68050626  0.64262957  0.01904076  1.0
  O  O11  1  0.96692091  0.76565310  0.17435172  1.0
  O  O12  1  0.03307927  0.23435299  0.82564442  1.0
  O  O13  1  0.76564862  0.96691878  0.67435314  1.0
  O  O14  1  0.10469912  0.58399616  0.67094116  1.0
  O  O15  1  0.23434104  0.03306530  0.32565627  1.0
  O  O16  1  0.58401543  0.10468572  0.17094406  1.0
  O  O17  1  0.41600335  0.89530733  0.82906145  1.0
  O  O18  1  0.89530842  0.41600136  0.32905682  1.0
  O  O19  1  0.31948460  0.35738063  0.98092778  1.0
