# generated using pymatgen
data_KVO3
_symmetry_space_group_name_H-M   'P 1'
_cell_length_a   5.35090355
_cell_length_b   5.78075477
_cell_length_c   10.93582732
_cell_angle_alpha   89.99980721
_cell_angle_beta   89.99978905
_cell_angle_gamma   89.99999549
_symmetry_Int_Tables_number   1
_chemical_formula_structural   KVO3
_chemical_formula_sum   'K4 V4 O12'
_cell_volume   338.26986732
_cell_formula_units_Z   4
loop_
 _symmetry_equiv_pos_site_id
 _symmetry_equiv_pos_as_xyz
  1  'x, y, z'
loop_
 _atom_site_type_symbol
 _atom_site_label
 _atom_site_symmetry_multiplicity
 _atom_site_fract_x
 _atom_site_fract_y
 _atom_site_fract_z
 _atom_site_occupancy
  K  K0  1  0.05618020  0.75000008  0.89417141  1.0
  K  K1  1  0.05618040  0.25000001  0.60582768  1.0
  K  K2  1  0.94381607  0.25000022  0.10582647  1.0
  K  K3  1  0.94381679  0.74999994  0.39417355  1.0
  V  V4  1  0.51938371  0.74999816  0.66107124  1.0
  V  V5  1  0.51940018  0.25000186  0.83893824  1.0
  V  V6  1  0.48057208  0.25000179  0.33894957  1.0
  V  V7  1  0.48058884  0.74999819  0.16106296  1.0
  O  O8  1  0.58834372  0.50000544  0.24999829  1.0
  O  O9  1  0.41166647  0.00001709  0.75000549  1.0
  O  O10  1  0.41166748  0.49998292  0.75000555  1.0
  O  O11  1  0.58834468  0.99999459  0.24999826  1.0
  O  O12  1  0.38350594  0.75000014  0.52388788  1.0
  O  O13  1  0.38352237  0.24999976  0.97609269  1.0
  O  O14  1  0.61648462  0.24999981  0.47609394  1.0
  O  O15  1  0.61648734  0.75000007  0.02390134  1.0
  O  O16  1  0.16736510  0.75000013  0.14683494  1.0
  O  O17  1  0.16738556  0.24999989  0.35316337  1.0
  O  O18  1  0.83261958  0.24999980  0.85316666  1.0
  O  O19  1  0.83266888  0.75000010  0.64683048  1.0
