# generated using pymatgen
data_KVO3
_symmetry_space_group_name_H-M   'P 1'
_cell_length_a   3.78064750
_cell_length_b   6.04684332
_cell_length_c   15.08341753
_cell_angle_alpha   89.99997788
_cell_angle_beta   89.99999996
_cell_angle_gamma   90.00000000
_symmetry_Int_Tables_number   1
_chemical_formula_structural   KVO3
_chemical_formula_sum   'K4 V4 O12'
_cell_volume   344.82175295
_cell_formula_units_Z   4
loop_
 _symmetry_equiv_pos_site_id
 _symmetry_equiv_pos_as_xyz
  1  'x, y, z'
loop_
 _atom_site_type_symbol
 _atom_site_label
 _atom_site_symmetry_multiplicity
 _atom_site_fract_x
 _atom_site_fract_y
 _atom_site_fract_z
 _atom_site_occupancy
  K  K0  1  0.25000001  0.89482519  0.33297845  1.0
  K  K1  1  0.74999999  0.10517646  0.66702274  1.0
  K  K2  1  0.74999999  0.39482645  0.16702300  1.0
  K  K3  1  0.25000001  0.60517564  0.83297832  1.0
  V  V4  1  0.75000000  0.07093524  0.92161696  1.0
  V  V5  1  0.25000000  0.92903105  0.07837284  1.0
  V  V6  1  0.25000000  0.57093014  0.57837572  1.0
  V  V7  1  0.75000000  0.42902583  0.42162315  1.0
  O  O8  1  0.25000000  0.41894020  0.67222372  1.0
  O  O9  1  0.75000000  0.16107973  0.39604344  1.0
  O  O10  1  0.25000000  0.47832326  0.45171970  1.0
  O  O11  1  0.75000000  0.52168291  0.54827965  1.0
  O  O12  1  0.75000000  0.33893284  0.89604454  1.0
  O  O13  1  0.75000000  0.97831781  0.04828022  1.0
  O  O14  1  0.75000000  0.58106866  0.32777398  1.0
  O  O15  1  0.75000000  0.91894740  0.82778322  1.0
  O  O16  1  0.25000000  0.83894788  0.60395836  1.0
  O  O17  1  0.25000000  0.66108211  0.10395571  1.0
  O  O18  1  0.25000000  0.08106643  0.17222449  1.0
  O  O19  1  0.25000000  0.02168477  0.95172177  1.0
