# generated using pymatgen
data_KYO2
_symmetry_space_group_name_H-M   'P 1'
_cell_length_a   6.57067782
_cell_length_b   6.57066911
_cell_length_c   6.57067830
_cell_angle_alpha   30.67882434
_cell_angle_beta   30.67883204
_cell_angle_gamma   30.67881924
_symmetry_Int_Tables_number   1
_chemical_formula_structural   KYO2
_chemical_formula_sum   'K1 Y1 O2'
_cell_volume   65.48202715
_cell_formula_units_Z   1
loop_
 _symmetry_equiv_pos_site_id
 _symmetry_equiv_pos_as_xyz
  1  'x, y, z'
loop_
 _atom_site_type_symbol
 _atom_site_label
 _atom_site_symmetry_multiplicity
 _atom_site_fract_x
 _atom_site_fract_y
 _atom_site_fract_z
 _atom_site_occupancy
  K  K0  1  0.00000010  0.00000013  0.99999944  1.0
  Y  Y1  1  0.49999991  0.49999975  0.50000031  1.0
  O  O2  1  0.22846243  0.22846539  0.22846275  1.0
  O  O3  1  0.77153756  0.77153473  0.77153751  1.0
