# generated using pymatgen
data_La2CdO4
_symmetry_space_group_name_H-M   'P 1'
_cell_length_a   3.83598849
_cell_length_b   11.71468301
_cell_length_c   11.63014356
_cell_angle_alpha   89.99999627
_cell_angle_beta   90.00000005
_cell_angle_gamma   89.99999901
_symmetry_Int_Tables_number   1
_chemical_formula_structural   La2CdO4
_chemical_formula_sum   'La8 Cd4 O16'
_cell_volume   522.62828750
_cell_formula_units_Z   4
loop_
 _symmetry_equiv_pos_site_id
 _symmetry_equiv_pos_as_xyz
  1  'x, y, z'
loop_
 _atom_site_type_symbol
 _atom_site_label
 _atom_site_symmetry_multiplicity
 _atom_site_fract_x
 _atom_site_fract_y
 _atom_site_fract_z
 _atom_site_occupancy
  La  La0  1  0.24999998  0.28348366  0.88130478  1.0
  La  La1  1  0.24999999  0.90262550  0.89448777  1.0
  La  La2  1  0.75000003  0.40262551  0.60551224  1.0
  La  La3  1  0.74999998  0.78348366  0.61869521  1.0
  La  La4  1  0.25000000  0.21651633  0.38130478  1.0
  La  La5  1  0.24999995  0.59737450  0.39448776  1.0
  La  La6  1  0.75000001  0.09737452  0.10551224  1.0
  La  La7  1  0.75000001  0.71651634  0.11869522  1.0
  Cd  Cd8  1  0.25000001  0.59515448  0.83799612  1.0
  Cd  Cd9  1  0.75000001  0.09515448  0.66200387  1.0
  Cd  Cd10  1  0.25000002  0.90484555  0.33799609  1.0
  Cd  Cd11  1  0.75000002  0.40484549  0.16200384  1.0
  O  O12  1  0.25000000  0.09976831  0.97611015  1.0
  O  O13  1  0.24999998  0.68793741  0.99220595  1.0
  O  O14  1  0.74999998  0.25301223  0.76089051  1.0
  O  O15  1  0.25000002  0.44657003  0.74175083  1.0
  O  O16  1  0.75000002  0.94656998  0.75824922  1.0
  O  O17  1  0.24999998  0.75301221  0.73910942  1.0
  O  O18  1  0.75000001  0.18793734  0.50779406  1.0
  O  O19  1  0.75000000  0.59976833  0.52388978  1.0
  O  O20  1  0.24999999  0.40023169  0.47611021  1.0
  O  O21  1  0.25000001  0.81206265  0.49220596  1.0
  O  O22  1  0.75000002  0.24698780  0.26089057  1.0
  O  O23  1  0.24999998  0.05342998  0.24175080  1.0
  O  O24  1  0.74999997  0.55343001  0.25824919  1.0
  O  O25  1  0.25000000  0.74698775  0.23910949  1.0
  O  O26  1  0.75000001  0.31206260  0.00779410  1.0
  O  O27  1  0.75000000  0.90023167  0.02388985  1.0
