# generated using pymatgen
data_La2HgO4
_symmetry_space_group_name_H-M   'P 1'
_cell_length_a   3.85383705
_cell_length_b   11.70217453
_cell_length_c   11.62568540
_cell_angle_alpha   89.99998983
_cell_angle_beta   89.99999876
_cell_angle_gamma   89.99999966
_symmetry_Int_Tables_number   1
_chemical_formula_structural   La2HgO4
_chemical_formula_sum   'La8 Hg4 O16'
_cell_volume   524.29834292
_cell_formula_units_Z   4
loop_
 _symmetry_equiv_pos_site_id
 _symmetry_equiv_pos_as_xyz
  1  'x, y, z'
loop_
 _atom_site_type_symbol
 _atom_site_label
 _atom_site_symmetry_multiplicity
 _atom_site_fract_x
 _atom_site_fract_y
 _atom_site_fract_z
 _atom_site_occupancy
  La  La0  1  0.25000001  0.27579221  0.87365577  1.0
  La  La1  1  0.25000001  0.90236852  0.89433647  1.0
  La  La2  1  0.75000000  0.40236858  0.60566355  1.0
  La  La3  1  0.75000000  0.77579228  0.62634437  1.0
  La  La4  1  0.25000000  0.22420771  0.37365564  1.0
  La  La5  1  0.24999998  0.59763143  0.39433645  1.0
  La  La6  1  0.75000000  0.09763148  0.10566352  1.0
  La  La7  1  0.74999999  0.72420780  0.12634424  1.0
  Hg  Hg8  1  0.25000000  0.58172995  0.85946588  1.0
  Hg  Hg9  1  0.75000000  0.08172951  0.64053447  1.0
  Hg  Hg10  1  0.25000001  0.91827046  0.35946555  1.0
  Hg  Hg11  1  0.75000001  0.41827009  0.14053415  1.0
  O  O12  1  0.25000001  0.09893287  0.97846166  1.0
  O  O13  1  0.25000000  0.69553817  0.99295077  1.0
  O  O14  1  0.75000001  0.25521302  0.75854111  1.0
  O  O15  1  0.25000000  0.45174646  0.74257768  1.0
  O  O16  1  0.75000000  0.95174662  0.75742204  1.0
  O  O17  1  0.25000002  0.75521292  0.74145877  1.0
  O  O18  1  0.74999999  0.19553839  0.50704902  1.0
  O  O19  1  0.75000001  0.59893282  0.52153828  1.0
  O  O20  1  0.24999999  0.40106717  0.47846172  1.0
  O  O21  1  0.25000001  0.80446163  0.49295096  1.0
  O  O22  1  0.74999997  0.24478707  0.25854124  1.0
  O  O23  1  0.25000000  0.04825338  0.24257796  1.0
  O  O24  1  0.75000000  0.54825353  0.25742230  1.0
  O  O25  1  0.24999999  0.74478699  0.24145888  1.0
  O  O26  1  0.75000002  0.30446181  0.00704920  1.0
  O  O27  1  0.75000000  0.90106714  0.02153834  1.0
