# generated using pymatgen
data_La2MgTiO6
_symmetry_space_group_name_H-M   'P 1'
_cell_length_a   5.56708593
_cell_length_b   5.56708558
_cell_length_c   5.56708573
_cell_angle_alpha   60.82108122
_cell_angle_beta   60.82108049
_cell_angle_gamma   60.82108040
_symmetry_Int_Tables_number   1
_chemical_formula_structural   La2MgTiO6
_chemical_formula_sum   'La2 Mg1 Ti1 O6'
_cell_volume   124.26162246
_cell_formula_units_Z   1
loop_
 _symmetry_equiv_pos_site_id
 _symmetry_equiv_pos_as_xyz
  1  'x, y, z'
loop_
 _atom_site_type_symbol
 _atom_site_label
 _atom_site_symmetry_multiplicity
 _atom_site_fract_x
 _atom_site_fract_y
 _atom_site_fract_z
 _atom_site_occupancy
  La  La0  1  0.75038810  0.75038816  0.75038818  1.0
  La  La1  1  0.24961192  0.24961182  0.24961184  1.0
  Mg  Mg2  1  0.50000003  0.49999998  0.50000001  1.0
  Ti  Ti3  1  0.00000001  0.00000000  0.99999999  1.0
  O  O4  1  0.75999040  0.31918539  0.16740236  1.0
  O  O5  1  0.16740241  0.75999040  0.31918538  1.0
  O  O6  1  0.31918537  0.16740249  0.75999036  1.0
  O  O7  1  0.24000960  0.68081459  0.83259762  1.0
  O  O8  1  0.68081460  0.83259757  0.24000962  1.0
  O  O9  1  0.83259757  0.24000960  0.68081463  1.0
