# generated using pymatgen
data_La2SO2
_symmetry_space_group_name_H-M   'P 1'
_cell_length_a   4.05761400
_cell_length_b   4.05761357
_cell_length_c   6.94666778
_cell_angle_alpha   90.00001543
_cell_angle_beta   90.00000237
_cell_angle_gamma   120.00003776
_symmetry_Int_Tables_number   1
_chemical_formula_structural   La2SO2
_chemical_formula_sum   'La2 S1 O2'
_cell_volume   99.04861578
_cell_formula_units_Z   1
loop_
 _symmetry_equiv_pos_site_id
 _symmetry_equiv_pos_as_xyz
  1  'x, y, z'
loop_
 _atom_site_type_symbol
 _atom_site_label
 _atom_site_symmetry_multiplicity
 _atom_site_fract_x
 _atom_site_fract_y
 _atom_site_fract_z
 _atom_site_occupancy
  La  La0  1  0.66666667  0.33333333  0.72015192  1.0
  La  La1  1  0.33333333  0.66666667  0.27984806  1.0
  S  S2  1  0.00000000  0.99999998  0.99999999  1.0
  O  O3  1  0.66666667  0.33333333  0.37114658  1.0
  O  O4  1  0.33333333  0.66666667  0.62885345  1.0
