# generated using pymatgen
data_La2TeO6
_symmetry_space_group_name_H-M   'P 1'
_cell_length_a   9.45178944
_cell_length_b   9.45186959
_cell_length_c   5.53165644
_cell_angle_alpha   89.99984970
_cell_angle_beta   89.99989362
_cell_angle_gamma   119.99993430
_symmetry_Int_Tables_number   1
_chemical_formula_structural   La2TeO6
_chemical_formula_sum   'La6 Te3 O18'
_cell_volume   427.97448444
_cell_formula_units_Z   3
loop_
 _symmetry_equiv_pos_site_id
 _symmetry_equiv_pos_as_xyz
  1  'x, y, z'
loop_
 _atom_site_type_symbol
 _atom_site_label
 _atom_site_symmetry_multiplicity
 _atom_site_fract_x
 _atom_site_fract_y
 _atom_site_fract_z
 _atom_site_occupancy
  La  La0  1  0.00000094  0.60852731  0.99999643  1.0
  La  La1  1  0.00000913  0.27121182  0.49999949  1.0
  La  La2  1  0.39147466  0.39147324  0.00000667  1.0
  La  La3  1  0.27117596  0.99998921  0.49999948  1.0
  La  La4  1  0.72881758  0.72879797  0.49999768  1.0
  La  La5  1  0.60852253  0.99999842  0.99999746  1.0
  Te  Te6  1  0.33333333  0.66666667  0.49274423  1.0
  Te  Te7  1  0.99999642  0.00000681  0.99999929  1.0
  Te  Te8  1  0.66666667  0.33333333  0.50725650  1.0
  O  O9  1  0.06444752  0.87401213  0.79324058  1.0
  O  O10  1  0.23165921  0.76019602  0.28599011  1.0
  O  O11  1  0.13995919  0.54691090  0.69744540  1.0
  O  O12  1  0.40695238  0.86005415  0.69744472  1.0
  O  O13  1  0.23980881  0.47147182  0.28598739  1.0
  O  O14  1  0.12598648  0.19043607  0.79324630  1.0
  O  O15  1  0.19043970  0.12599144  0.20675752  1.0
  O  O16  1  0.52854054  0.76834388  0.28598401  1.0
  O  O17  1  0.45310018  0.59304554  0.69744279  1.0
  O  O18  1  0.80955645  0.93554389  0.79324799  1.0
  O  O19  1  0.47145794  0.23980395  0.71401252  1.0
  O  O20  1  0.59304918  0.45309803  0.30255329  1.0
  O  O21  1  0.54689179  0.13994259  0.30255534  1.0
  O  O22  1  0.76834133  0.52853196  0.71400478  1.0
  O  O23  1  0.93555922  0.80956682  0.20676045  1.0
  O  O24  1  0.76019101  0.23165821  0.71401588  1.0
  O  O25  1  0.86004146  0.40694927  0.30255310  1.0
  O  O26  1  0.87400830  0.06444765  0.20675962  1.0
