# generated using pymatgen
data_La2ZnSnO6
_symmetry_space_group_name_H-M   'P 1'
_cell_length_a   5.70597222
_cell_length_b   5.70597554
_cell_length_c   5.70598098
_cell_angle_alpha   61.08286587
_cell_angle_beta   61.08281590
_cell_angle_gamma   61.08296131
_symmetry_Int_Tables_number   1
_chemical_formula_structural   La2ZnSnO6
_chemical_formula_sum   'La2 Zn1 Sn1 O6'
_cell_volume   134.56593714
_cell_formula_units_Z   1
loop_
 _symmetry_equiv_pos_site_id
 _symmetry_equiv_pos_as_xyz
  1  'x, y, z'
loop_
 _atom_site_type_symbol
 _atom_site_label
 _atom_site_symmetry_multiplicity
 _atom_site_fract_x
 _atom_site_fract_y
 _atom_site_fract_z
 _atom_site_occupancy
  La  La0  1  0.75071741  0.75071852  0.75071688  1.0
  La  La1  1  0.24928047  0.24928048  0.24928070  1.0
  Zn  Zn2  1  0.49999952  0.49999994  0.49999966  1.0
  Sn  Sn3  1  0.00000053  0.99999920  0.00000050  1.0
  O  O4  1  0.75640213  0.34013162  0.15446117  1.0
  O  O5  1  0.15446215  0.75640178  0.34013327  1.0
  O  O6  1  0.34013044  0.15446257  0.75640195  1.0
  O  O7  1  0.24360052  0.65986854  0.84553774  1.0
  O  O8  1  0.65986940  0.84553685  0.24360017  1.0
  O  O9  1  0.84553742  0.24360048  0.65986796  1.0
