# generated using pymatgen
data_La3Ge6N11
_symmetry_space_group_name_H-M   'P 1'
_cell_length_a   10.60041233
_cell_length_b   10.60041033
_cell_length_c   5.16522719
_cell_angle_alpha   90.00026651
_cell_angle_beta   89.99999233
_cell_angle_gamma   90.00000854
_symmetry_Int_Tables_number   1
_chemical_formula_structural   La3Ge6N11
_chemical_formula_sum   'La6 Ge12 N22'
_cell_volume   580.40996973
_cell_formula_units_Z   2
loop_
 _symmetry_equiv_pos_site_id
 _symmetry_equiv_pos_as_xyz
  1  'x, y, z'
loop_
 _atom_site_type_symbol
 _atom_site_label
 _atom_site_symmetry_multiplicity
 _atom_site_fract_x
 _atom_site_fract_y
 _atom_site_fract_z
 _atom_site_occupancy
  La  La0  1  0.82003984  0.32004230  0.98838679  1.0
  La  La1  1  0.17995483  0.67995598  0.98838677  1.0
  La  La2  1  0.32004513  0.17995608  0.98838648  1.0
  La  La3  1  0.67996012  0.82004270  0.98838598  1.0
  La  La4  1  0.50000327  0.50000079  0.98121119  1.0
  La  La5  1  0.99999670  0.00000098  0.98121119  1.0
  Ge  Ge6  1  0.29203043  0.42082318  0.53035203  1.0
  Ge  Ge7  1  0.70797141  0.57917536  0.53034694  1.0
  Ge  Ge8  1  0.79202877  0.07917531  0.53034730  1.0
  Ge  Ge9  1  0.20796924  0.92082364  0.53035214  1.0
  Ge  Ge10  1  0.57918171  0.29202867  0.53034619  1.0
  Ge  Ge11  1  0.42082637  0.70796953  0.53035241  1.0
  Ge  Ge12  1  0.92081863  0.79202910  0.53034513  1.0
  Ge  Ge13  1  0.07917306  0.20796907  0.53035319  1.0
  Ge  Ge14  1  0.38081141  0.88081125  0.04783824  1.0
  Ge  Ge15  1  0.61920322  0.11920293  0.04783297  1.0
  Ge  Ge16  1  0.88079733  0.61920276  0.04782878  1.0
  Ge  Ge17  1  0.11918916  0.38081035  0.04783562  1.0
  N  N18  1  0.41991273  0.31748997  0.66472974  1.0
  N  N19  1  0.58007393  0.68251316  0.66472126  1.0
  N  N20  1  0.91992666  0.18251331  0.66472177  1.0
  N  N21  1  0.08008646  0.81748878  0.66472937  1.0
  N  N22  1  0.68250993  0.41991937  0.66472475  1.0
  N  N23  1  0.31748813  0.58007951  0.66472424  1.0
  N  N24  1  0.81749045  0.91991898  0.66472467  1.0
  N  N25  1  0.18251226  0.08007766  0.66472345  1.0
  N  N26  1  0.28016495  0.42057539  0.17075775  1.0
  N  N27  1  0.71983497  0.57942551  0.17075797  1.0
  N  N28  1  0.78016516  0.07942556  0.17075954  1.0
  N  N29  1  0.21983458  0.92057491  0.17075752  1.0
  N  N30  1  0.57942339  0.28016624  0.17075649  1.0
  N  N31  1  0.42057378  0.71983563  0.17076056  1.0
  N  N32  1  0.92057650  0.78016549  0.17075532  1.0
  N  N33  1  0.07942625  0.21983610  0.17076081  1.0
  N  N34  1  0.34807503  0.84807522  0.69566898  1.0
  N  N35  1  0.65192478  0.15192480  0.69566828  1.0
  N  N36  1  0.84807512  0.65192443  0.69566601  1.0
  N  N37  1  0.15192518  0.34807546  0.69566856  1.0
  N  N38  1  0.00001421  0.49998770  0.09560183  1.0
  N  N39  1  0.49998494  0.99998685  0.09560184  1.0
