# generated using pymatgen
data_LaAlO3
_symmetry_space_group_name_H-M   'P 1'
_cell_length_a   3.81160145
_cell_length_b   3.81160232
_cell_length_c   3.81160365
_cell_angle_alpha   89.99993446
_cell_angle_beta   90.00003217
_cell_angle_gamma   90.00003848
_symmetry_Int_Tables_number   1
_chemical_formula_structural   LaAlO3
_chemical_formula_sum   'La1 Al1 O3'
_cell_volume   55.37615534
_cell_formula_units_Z   1
loop_
 _symmetry_equiv_pos_site_id
 _symmetry_equiv_pos_as_xyz
  1  'x, y, z'
loop_
 _atom_site_type_symbol
 _atom_site_label
 _atom_site_symmetry_multiplicity
 _atom_site_fract_x
 _atom_site_fract_y
 _atom_site_fract_z
 _atom_site_occupancy
  La  La0  1  0.00000055  0.99999953  0.99999971  1.0
  Al  Al1  1  0.49999984  0.50000008  0.49999995  1.0
  O  O2  1  0.49999973  0.50000002  0.99999995  1.0
  O  O3  1  0.49999970  0.00000023  0.50000010  1.0
  O  O4  1  0.00000018  0.50000014  0.50000029  1.0
