# generated using pymatgen
data_LaAsO4
_symmetry_space_group_name_H-M   'P 1'
_cell_length_a   4.82309232
_cell_length_b   5.41949361
_cell_length_c   13.15454911
_cell_angle_alpha   70.46292820
_cell_angle_beta   89.99998607
_cell_angle_gamma   89.99999082
_symmetry_Int_Tables_number   1
_chemical_formula_structural   LaAsO4
_chemical_formula_sum   'La4 As4 O16'
_cell_volume   324.04639355
_cell_formula_units_Z   4
loop_
 _symmetry_equiv_pos_site_id
 _symmetry_equiv_pos_as_xyz
  1  'x, y, z'
loop_
 _atom_site_type_symbol
 _atom_site_label
 _atom_site_symmetry_multiplicity
 _atom_site_fract_x
 _atom_site_fract_y
 _atom_site_fract_z
 _atom_site_occupancy
  La  La0  1  0.82651678  0.65332907  0.33875510  1.0
  La  La1  1  0.67348457  0.65333175  0.83875263  1.0
  La  La2  1  0.17348424  0.34666830  0.66124746  1.0
  La  La3  1  0.32651699  0.34667102  0.16124496  1.0
  As  As4  1  0.75373227  0.91291524  0.06706407  1.0
  As  As5  1  0.74626863  0.91291469  0.56708115  1.0
  As  As6  1  0.24626880  0.08708543  0.93291898  1.0
  As  As7  1  0.25373238  0.08708465  0.43293598  1.0
  O  O8  1  0.44150496  0.76835966  0.02314057  1.0
  O  O9  1  0.05849584  0.76836762  0.52313150  1.0
  O  O10  1  0.55849584  0.23163246  0.97686854  1.0
  O  O11  1  0.94150487  0.23164019  0.47685930  1.0
  O  O12  1  0.61684629  0.97766862  0.18232072  1.0
  O  O13  1  0.88314941  0.97766707  0.68231123  1.0
  O  O14  1  0.38314959  0.02233360  0.81768869  1.0
  O  O15  1  0.11684644  0.02233047  0.31767933  1.0
  O  O16  1  0.06819512  0.11645067  0.05884676  1.0
  O  O17  1  0.43180283  0.11645515  0.55883820  1.0
  O  O18  1  0.93180303  0.88354513  0.94116163  1.0
  O  O19  1  0.56819526  0.88354919  0.44115327  1.0
  O  O20  1  0.86794455  0.59200933  0.15593679  1.0
  O  O21  1  0.63205841  0.59201963  0.65593093  1.0
  O  O22  1  0.13205839  0.40798052  0.84406923  1.0
  O  O23  1  0.36794451  0.40799053  0.34406298  1.0
