# generated using pymatgen
data_LaBiO4
_symmetry_space_group_name_H-M   'P 1'
_cell_length_a   5.43881536
_cell_length_b   5.48161049
_cell_length_c   14.45495643
_cell_angle_alpha   68.40054852
_cell_angle_beta   90.00000385
_cell_angle_gamma   90.00000478
_symmetry_Int_Tables_number   1
_chemical_formula_structural   LaBiO4
_chemical_formula_sum   'La4 Bi4 O16'
_cell_volume   400.69090012
_cell_formula_units_Z   4
loop_
 _symmetry_equiv_pos_site_id
 _symmetry_equiv_pos_as_xyz
  1  'x, y, z'
loop_
 _atom_site_type_symbol
 _atom_site_label
 _atom_site_symmetry_multiplicity
 _atom_site_fract_x
 _atom_site_fract_y
 _atom_site_fract_z
 _atom_site_occupancy
  La  La0  1  0.75812875  0.66470857  0.33358902  1.0
  La  La1  1  0.74187136  0.66470925  0.83358885  1.0
  La  La2  1  0.24187111  0.33529123  0.66641102  1.0
  La  La3  1  0.25812876  0.33529072  0.16641111  1.0
  Bi  Bi4  1  0.75069572  0.92701005  0.07162529  1.0
  Bi  Bi5  1  0.74930457  0.92700932  0.57162573  1.0
  Bi  Bi6  1  0.24930447  0.07299044  0.92837443  1.0
  Bi  Bi7  1  0.25069514  0.07299036  0.42837464  1.0
  O  O8  1  0.43114699  0.73557096  0.04256505  1.0
  O  O9  1  0.06885315  0.73557059  0.54256518  1.0
  O  O10  1  0.56885300  0.26442910  0.95743506  1.0
  O  O11  1  0.93114698  0.26442948  0.45743479  1.0
  O  O12  1  0.59639973  0.02500380  0.18583595  1.0
  O  O13  1  0.90359977  0.02500350  0.68583590  1.0
  O  O14  1  0.40360016  0.97499630  0.81416409  1.0
  O  O15  1  0.09640017  0.97499597  0.31416404  1.0
  O  O16  1  0.07014166  0.17334068  0.04629544  1.0
  O  O17  1  0.42985831  0.17334058  0.54629527  1.0
  O  O18  1  0.92985826  0.82665945  0.95370460  1.0
  O  O19  1  0.57014149  0.82665948  0.45370465  1.0
  O  O20  1  0.90324003  0.59793569  0.18268650  1.0
  O  O21  1  0.59676019  0.59793546  0.68268639  1.0
  O  O22  1  0.09676029  0.40206438  0.81731358  1.0
  O  O23  1  0.40323992  0.40206469  0.31731343  1.0
