# generated using pymatgen
data_LaSeClO3
_symmetry_space_group_name_H-M   'P 1'
_cell_length_a   7.37145560
_cell_length_b   7.65959684
_cell_length_c   9.24118679
_cell_angle_alpha   90.00000572
_cell_angle_beta   90.00000296
_cell_angle_gamma   89.99999885
_symmetry_Int_Tables_number   1
_chemical_formula_structural   LaSeClO3
_chemical_formula_sum   'La4 Se4 Cl4 O12'
_cell_volume   521.77938189
_cell_formula_units_Z   4
loop_
 _symmetry_equiv_pos_site_id
 _symmetry_equiv_pos_as_xyz
  1  'x, y, z'
loop_
 _atom_site_type_symbol
 _atom_site_label
 _atom_site_symmetry_multiplicity
 _atom_site_fract_x
 _atom_site_fract_y
 _atom_site_fract_z
 _atom_site_occupancy
  La  La0  1  0.25000004  0.11533104  0.53915127  1.0
  La  La1  1  0.75000008  0.38466900  0.03915133  1.0
  La  La2  1  0.74999989  0.88466884  0.46084884  1.0
  La  La3  1  0.24999994  0.61533126  0.96084884  1.0
  Se  Se4  1  0.74999996  0.28271412  0.62883648  1.0
  Se  Se5  1  0.75000028  0.78271380  0.87116393  1.0
  Se  Se6  1  0.24999988  0.21728596  0.12883626  1.0
  Se  Se7  1  0.25000005  0.71728615  0.37116389  1.0
  Cl  Cl8  1  0.74999995  0.54880535  0.32091492  1.0
  Cl  Cl9  1  0.25000002  0.95119486  0.82091523  1.0
  Cl  Cl10  1  0.74999988  0.04880513  0.17908464  1.0
  Cl  Cl11  1  0.25000003  0.45119462  0.67908513  1.0
  O  O12  1  0.92334413  0.64342254  0.93022838  1.0
  O  O13  1  0.92334400  0.14342261  0.56977110  1.0
  O  O14  1  0.74999980  0.74999555  0.68883212  1.0
  O  O15  1  0.57665596  0.14342253  0.56977133  1.0
  O  O16  1  0.75000001  0.24999540  0.81116794  1.0
  O  O17  1  0.42334421  0.35657748  0.06977118  1.0
  O  O18  1  0.07665597  0.35657747  0.06977130  1.0
  O  O19  1  0.07665597  0.85657739  0.43022866  1.0
  O  O20  1  0.42334387  0.85657722  0.43022851  1.0
  O  O21  1  0.25000024  0.25000451  0.31116785  1.0
  O  O22  1  0.24999981  0.75000463  0.18883222  1.0
  O  O23  1  0.57665601  0.64342254  0.93022865  1.0
