# generated using pymatgen
data_LaYO3
_symmetry_space_group_name_H-M   'P 1'
_cell_length_a   6.68221938
_cell_length_b   6.68221916
_cell_length_c   12.97439136
_cell_angle_alpha   90.00000009
_cell_angle_beta   90.00000096
_cell_angle_gamma   120.00013751
_symmetry_Int_Tables_number   1
_chemical_formula_structural   LaYO3
_chemical_formula_sum   'La6 Y6 O18'
_cell_volume   501.71659790
_cell_formula_units_Z   6
loop_
 _symmetry_equiv_pos_site_id
 _symmetry_equiv_pos_as_xyz
  1  'x, y, z'
loop_
 _atom_site_type_symbol
 _atom_site_label
 _atom_site_symmetry_multiplicity
 _atom_site_fract_x
 _atom_site_fract_y
 _atom_site_fract_z
 _atom_site_occupancy
  La  La0  1  0.00000028  0.66752563  0.49973867  1.0
  La  La1  1  0.99999974  0.33247442  0.99973868  1.0
  La  La2  1  0.33247473  0.33247474  0.49973883  1.0
  La  La3  1  0.66752529  0.66752530  0.99973886  1.0
  La  La4  1  0.33247438  0.99999973  0.99973869  1.0
  La  La5  1  0.66752565  0.00000029  0.49973868  1.0
  Y  Y6  1  0.33333333  0.66666667  0.23574557  1.0
  Y  Y7  1  0.00000076  0.00000074  0.26178624  1.0
  Y  Y8  1  0.99999926  0.99999929  0.76178624  1.0
  Y  Y9  1  0.33333333  0.66666667  0.73574557  1.0
  Y  Y10  1  0.66666667  0.33333333  0.73574557  1.0
  Y  Y11  1  0.66666667  0.33333333  0.23574556  1.0
  O  O12  1  0.99999982  0.70966662  0.67911339  1.0
  O  O13  1  0.99999988  0.60406817  0.32526507  1.0
  O  O14  1  0.00000010  0.39593182  0.82526506  1.0
  O  O15  1  0.00000015  0.29033335  0.17911337  1.0
  O  O16  1  0.33333333  0.66666667  0.04938405  1.0
  O  O17  1  0.99999978  0.99999978  0.44321802  1.0
  O  O18  1  0.00000024  0.00000026  0.94321800  1.0
  O  O19  1  0.33333333  0.66666667  0.54938405  1.0
  O  O20  1  0.29033321  0.29033323  0.67911351  1.0
  O  O21  1  0.39593045  0.39593043  0.32526489  1.0
  O  O22  1  0.29033337  0.00000014  0.17911338  1.0
  O  O23  1  0.60406948  0.60406948  0.82526490  1.0
  O  O24  1  0.70966679  0.70966676  0.17911352  1.0
  O  O25  1  0.39593185  0.00000010  0.82526507  1.0
  O  O26  1  0.66666667  0.33333333  0.54938405  1.0
  O  O27  1  0.66666667  0.33333333  0.04938405  1.0
  O  O28  1  0.60406816  0.99999986  0.32526507  1.0
  O  O29  1  0.70966659  0.99999981  0.67911339  1.0
