# generated using pymatgen
data_Li2AlF5
_symmetry_space_group_name_H-M   'P 1'
_cell_length_a   5.73593619
_cell_length_b   6.53650080
_cell_length_c   8.78837099
_cell_angle_alpha   89.99982154
_cell_angle_beta   90.00002909
_cell_angle_gamma   89.99982193
_symmetry_Int_Tables_number   1
_chemical_formula_structural   Li2AlF5
_chemical_formula_sum   'Li8 Al4 F20'
_cell_volume   329.50196724
_cell_formula_units_Z   4
loop_
 _symmetry_equiv_pos_site_id
 _symmetry_equiv_pos_as_xyz
  1  'x, y, z'
loop_
 _atom_site_type_symbol
 _atom_site_label
 _atom_site_symmetry_multiplicity
 _atom_site_fract_x
 _atom_site_fract_y
 _atom_site_fract_z
 _atom_site_occupancy
  Li  Li0  1  0.02846404  0.46879065  0.66950835  1.0
  Li  Li1  1  0.02846132  0.03121778  0.66950924  1.0
  Li  Li2  1  0.52846321  0.53120870  0.83049098  1.0
  Li  Li3  1  0.52846119  0.96878144  0.83049107  1.0
  Li  Li4  1  0.47153061  0.46881583  0.16947888  1.0
  Li  Li5  1  0.47153243  0.03119534  0.16947998  1.0
  Li  Li6  1  0.97153012  0.53118496  0.33052141  1.0
  Li  Li7  1  0.97153269  0.96880540  0.33051944  1.0
  Al  Al8  1  0.53773067  0.24999726  0.52755476  1.0
  Al  Al9  1  0.03773015  0.75000087  0.97244524  1.0
  Al  Al10  1  0.96226392  0.24999876  0.02756808  1.0
  Al  Al11  1  0.46226430  0.75000307  0.47243197  1.0
  F  F12  1  0.85481786  0.25000415  0.54961793  1.0
  F  F13  1  0.31524696  0.05383653  0.55478685  1.0
  F  F14  1  0.31524982  0.44615822  0.55479122  1.0
  F  F15  1  0.53049731  0.74999796  0.67421743  1.0
  F  F16  1  0.54838890  0.24999255  0.73994848  1.0
  F  F17  1  0.04838872  0.75000470  0.76005144  1.0
  F  F18  1  0.03049780  0.25000169  0.82578278  1.0
  F  F19  1  0.81524715  0.94616230  0.94521202  1.0
  F  F20  1  0.81524894  0.55384053  0.94520929  1.0
  F  F21  1  0.35481732  0.74999634  0.95038232  1.0
  F  F22  1  0.64519688  0.25000326  0.04962753  1.0
  F  F23  1  0.18474151  0.05383439  0.05476717  1.0
  F  F24  1  0.18473987  0.44616182  0.05476954  1.0
  F  F25  1  0.96949879  0.74999752  0.17421345  1.0
  F  F26  1  0.95163859  0.24999503  0.23995353  1.0
  F  F27  1  0.45163931  0.75000771  0.26004656  1.0
  F  F28  1  0.46949970  0.25000287  0.32578649  1.0
  F  F29  1  0.68474263  0.94616669  0.44523419  1.0
  F  F30  1  0.68473999  0.55383950  0.44523024  1.0
  F  F31  1  0.14519731  0.74999621  0.45037216  1.0
