# generated using pymatgen
data_Li2CoF5
_symmetry_space_group_name_H-M   'P 1'
_cell_length_a   6.08810118
_cell_length_b   6.26175294
_cell_length_c   8.96149402
_cell_angle_alpha   89.99997925
_cell_angle_beta   89.99998952
_cell_angle_gamma   90.00004219
_symmetry_Int_Tables_number   1
_chemical_formula_structural   Li2CoF5
_chemical_formula_sum   'Li8 Co4 F20'
_cell_volume   341.63173705
_cell_formula_units_Z   4
loop_
 _symmetry_equiv_pos_site_id
 _symmetry_equiv_pos_as_xyz
  1  'x, y, z'
loop_
 _atom_site_type_symbol
 _atom_site_label
 _atom_site_symmetry_multiplicity
 _atom_site_fract_x
 _atom_site_fract_y
 _atom_site_fract_z
 _atom_site_occupancy
  Li  Li0  1  0.04536543  0.47783083  0.66464847  1.0
  Li  Li1  1  0.04536544  0.02217289  0.66464906  1.0
  Li  Li2  1  0.54536574  0.52217074  0.83535068  1.0
  Li  Li3  1  0.54536536  0.97782890  0.83535146  1.0
  Li  Li4  1  0.45463454  0.47782848  0.16465012  1.0
  Li  Li5  1  0.45463464  0.02217057  0.16464812  1.0
  Li  Li6  1  0.95463485  0.52216970  0.33535071  1.0
  Li  Li7  1  0.95463416  0.97782776  0.33535149  1.0
  Co  Co8  1  0.57017662  0.25000326  0.51205131  1.0
  Co  Co9  1  0.07017526  0.75001193  0.98794870  1.0
  Co  Co10  1  0.92982314  0.24998693  0.01205254  1.0
  Co  Co11  1  0.42982415  0.74999801  0.48794716  1.0
  F  F12  1  0.89236545  0.25000004  0.53354373  1.0
  F  F13  1  0.32035021  0.04781926  0.55086975  1.0
  F  F14  1  0.32035261  0.45218183  0.55086916  1.0
  F  F15  1  0.54318734  0.74999942  0.69238777  1.0
  F  F16  1  0.57542363  0.25000084  0.73158573  1.0
  F  F17  1  0.07542377  0.75000020  0.76841428  1.0
  F  F18  1  0.04318732  0.25000312  0.80761220  1.0
  F  F19  1  0.82035487  0.95218072  0.94913136  1.0
  F  F20  1  0.82034895  0.54781867  0.94912984  1.0
  F  F21  1  0.39236543  0.74999603  0.96645620  1.0
  F  F22  1  0.60763480  0.25000315  0.03354362  1.0
  F  F23  1  0.17964548  0.04781809  0.05086759  1.0
  F  F24  1  0.17965160  0.45218097  0.05087095  1.0
  F  F25  1  0.95681308  0.74999818  0.19238697  1.0
  F  F26  1  0.92457637  0.24999884  0.23158542  1.0
  F  F27  1  0.42457615  0.75000011  0.26841477  1.0
  F  F28  1  0.45681276  0.24999922  0.30761270  1.0
  F  F29  1  0.67964905  0.95218150  0.44913135  1.0
  F  F30  1  0.67964717  0.54781917  0.44913025  1.0
  F  F31  1  0.10763462  0.75000065  0.46645655  1.0
