# generated using pymatgen
data_Li2FeF5
_symmetry_space_group_name_H-M   'P 1'
_cell_length_a   6.23070578
_cell_length_b   6.25244994
_cell_length_c   8.96712112
_cell_angle_alpha   89.99997852
_cell_angle_beta   90.00000463
_cell_angle_gamma   90.00000018
_symmetry_Int_Tables_number   1
_chemical_formula_structural   Li2FeF5
_chemical_formula_sum   'Li8 Fe4 F20'
_cell_volume   349.33371551
_cell_formula_units_Z   4
loop_
 _symmetry_equiv_pos_site_id
 _symmetry_equiv_pos_as_xyz
  1  'x, y, z'
loop_
 _atom_site_type_symbol
 _atom_site_label
 _atom_site_symmetry_multiplicity
 _atom_site_fract_x
 _atom_site_fract_y
 _atom_site_fract_z
 _atom_site_occupancy
  Li  Li0  1  0.05238229  0.47156845  0.66564589  1.0
  Li  Li1  1  0.05238241  0.02843182  0.66564638  1.0
  Li  Li2  1  0.55238219  0.52843167  0.83435410  1.0
  Li  Li3  1  0.55238231  0.97156807  0.83435361  1.0
  Li  Li4  1  0.44761781  0.47156833  0.16564590  1.0
  Li  Li5  1  0.44761769  0.02843193  0.16564639  1.0
  Li  Li6  1  0.94761771  0.52843155  0.33435411  1.0
  Li  Li7  1  0.94761759  0.97156818  0.33435361  1.0
  Fe  Fe8  1  0.57541722  0.25000001  0.51303368  1.0
  Fe  Fe9  1  0.07541732  0.74999999  0.98696659  1.0
  Fe  Fe10  1  0.92458268  0.25000001  0.01303341  1.0
  Fe  Fe11  1  0.42458278  0.74999999  0.48696632  1.0
  F  F12  1  0.90184913  0.25000002  0.54206910  1.0
  F  F13  1  0.32639132  0.03874212  0.56212730  1.0
  F  F14  1  0.32639126  0.46125778  0.56212723  1.0
  F  F15  1  0.56799026  0.74999982  0.68526547  1.0
  F  F16  1  0.58737864  0.24999996  0.73254182  1.0
  F  F17  1  0.08737875  0.75000004  0.76745839  1.0
  F  F18  1  0.06799044  0.25000018  0.81473444  1.0
  F  F19  1  0.82639133  0.96125788  0.93787267  1.0
  F  F20  1  0.82639127  0.53874222  0.93787274  1.0
  F  F21  1  0.40184930  0.74999998  0.95793106  1.0
  F  F22  1  0.59815070  0.25000002  0.04206894  1.0
  F  F23  1  0.17360867  0.03874212  0.06212733  1.0
  F  F24  1  0.17360873  0.46125778  0.06212726  1.0
  F  F25  1  0.93200956  0.74999982  0.18526556  1.0
  F  F26  1  0.91262125  0.24999996  0.23254161  1.0
  F  F27  1  0.41262136  0.75000003  0.26745818  1.0
  F  F28  1  0.43200975  0.25000018  0.31473453  1.0
  F  F29  1  0.67360869  0.96125788  0.43787270  1.0
  F  F30  1  0.67360875  0.53874222  0.43787277  1.0
  F  F31  1  0.09815087  0.74999998  0.45793090  1.0
