# generated using pymatgen
data_Li2GeF6
_symmetry_space_group_name_H-M   'P 1'
_cell_length_a   5.70160764
_cell_length_b   5.70160332
_cell_length_c   5.07397269
_cell_angle_alpha   89.99723518
_cell_angle_beta   90.00283944
_cell_angle_gamma   120.00007959
_symmetry_Int_Tables_number   1
_chemical_formula_structural   Li2GeF6
_chemical_formula_sum   'Li2 Ge1 F6'
_cell_volume   142.84752972
_cell_formula_units_Z   1
loop_
 _symmetry_equiv_pos_site_id
 _symmetry_equiv_pos_as_xyz
  1  'x, y, z'
loop_
 _atom_site_type_symbol
 _atom_site_label
 _atom_site_symmetry_multiplicity
 _atom_site_fract_x
 _atom_site_fract_y
 _atom_site_fract_z
 _atom_site_occupancy
  Li  Li0  1  0.33333333  0.66666667  0.23414092  1.0
  Li  Li1  1  0.66666667  0.33333333  0.76585873  1.0
  Ge  Ge2  1  0.99999695  0.99999865  0.00000174  1.0
  F  F3  1  0.15136378  0.84863678  0.20733452  1.0
  F  F4  1  0.15137197  0.30273011  0.20734001  1.0
  F  F5  1  0.30273135  0.15137228  0.79265877  1.0
  F  F6  1  0.69726926  0.84862799  0.20734063  1.0
  F  F7  1  0.84862870  0.69727000  0.79265945  1.0
  F  F8  1  0.84863707  0.15136374  0.79266523  1.0
