# generated using pymatgen
data_Li2GeO3
_symmetry_space_group_name_H-M   'P 1'
_cell_length_a   5.01031464
_cell_length_b   5.01031470
_cell_length_c   9.79484456
_cell_angle_alpha   85.02435867
_cell_angle_beta   85.02435708
_cell_angle_gamma   120.07833798
_symmetry_Int_Tables_number   1
_chemical_formula_structural   Li2GeO3
_chemical_formula_sum   'Li8 Ge4 O12'
_cell_volume   209.53885621
_cell_formula_units_Z   4
loop_
 _symmetry_equiv_pos_site_id
 _symmetry_equiv_pos_as_xyz
  1  'x, y, z'
loop_
 _atom_site_type_symbol
 _atom_site_label
 _atom_site_symmetry_multiplicity
 _atom_site_fract_x
 _atom_site_fract_y
 _atom_site_fract_z
 _atom_site_occupancy
  Li  Li0  1  0.16061118  0.32037466  0.00039193  1.0
  Li  Li1  1  0.67962522  0.83938883  0.49960806  1.0
  Li  Li2  1  0.83938848  0.67962460  0.99960809  1.0
  Li  Li3  1  0.32037514  0.16061142  0.50039190  1.0
  Li  Li4  1  0.00000000  0.50000001  0.49999998  1.0
  Li  Li5  1  0.50000002  0.00000002  0.00000001  1.0
  Li  Li6  1  0.91528249  0.08471751  0.75000003  1.0
  Li  Li7  1  0.08471753  0.91528253  0.24999998  1.0
  Ge  Ge8  1  0.58213496  0.41786499  0.75000011  1.0
  Ge  Ge9  1  0.75050872  0.24949137  0.24999990  1.0
  Ge  Ge10  1  0.24949122  0.75050871  0.75000012  1.0
  Ge  Ge11  1  0.41786492  0.58213519  0.24999989  1.0
  O  O12  1  0.04520707  0.23773764  0.36348284  1.0
  O  O13  1  0.87804591  0.40913824  0.86084712  1.0
  O  O14  1  0.76226233  0.95479291  0.13651724  1.0
  O  O15  1  0.95479307  0.76226242  0.63651724  1.0
  O  O16  1  0.51756049  0.68557689  0.86132143  1.0
  O  O17  1  0.59086184  0.12195415  0.63915279  1.0
  O  O18  1  0.12195424  0.59086187  0.13915279  1.0
  O  O19  1  0.40913806  0.87804574  0.36084729  1.0
  O  O20  1  0.68557688  0.51756060  0.36132158  1.0
  O  O21  1  0.31442312  0.48243956  0.63867848  1.0
  O  O22  1  0.48243942  0.31442313  0.13867849  1.0
  O  O23  1  0.23773769  0.04520701  0.86348268  1.0
