# generated using pymatgen
data_Li2MnF4
_symmetry_space_group_name_H-M   'P 1'
_cell_length_a   6.15876061
_cell_length_b   6.15875915
_cell_length_c   6.15897228
_cell_angle_alpha   140.10018448
_cell_angle_beta   140.10018923
_cell_angle_gamma   57.70302759
_symmetry_Int_Tables_number   1
_chemical_formula_structural   Li2MnF4
_chemical_formula_sum   'Li2 Mn1 F4'
_cell_volume   95.28183219
_cell_formula_units_Z   1
loop_
 _symmetry_equiv_pos_site_id
 _symmetry_equiv_pos_as_xyz
  1  'x, y, z'
loop_
 _atom_site_type_symbol
 _atom_site_label
 _atom_site_symmetry_multiplicity
 _atom_site_fract_x
 _atom_site_fract_y
 _atom_site_fract_z
 _atom_site_occupancy
  Li  Li0  1  0.35228459  0.35228504  0.00001423  1.0
  Li  Li1  1  0.64771523  0.64771512  0.99998575  1.0
  Mn  Mn2  1  0.99999995  0.00000005  0.99999999  1.0
  F  F3  1  0.19213923  0.19213924  0.00000632  1.0
  F  F4  1  0.80786107  0.80786081  0.99999403  1.0
  F  F5  1  0.49999990  0.99999966  0.49999968  1.0
  F  F6  1  0.00000003  0.50000008  0.49999999  1.0
