# generated using pymatgen
data_Li2SeF6
_symmetry_space_group_name_H-M   'P 1'
_cell_length_a   5.89318703
_cell_length_b   5.89318685
_cell_length_c   5.07497413
_cell_angle_alpha   90.00097213
_cell_angle_beta   89.99903421
_cell_angle_gamma   119.99939867
_symmetry_Int_Tables_number   1
_chemical_formula_structural   Li2SeF6
_chemical_formula_sum   'Li2 Se1 F6'
_cell_volume   152.63970969
_cell_formula_units_Z   1
loop_
 _symmetry_equiv_pos_site_id
 _symmetry_equiv_pos_as_xyz
  1  'x, y, z'
loop_
 _atom_site_type_symbol
 _atom_site_label
 _atom_site_symmetry_multiplicity
 _atom_site_fract_x
 _atom_site_fract_y
 _atom_site_fract_z
 _atom_site_occupancy
  Li  Li0  1  0.33333333  0.66666667  0.25340250  1.0
  Li  Li1  1  0.66666667  0.33333333  0.74659751  1.0
  Se  Se2  1  0.00000000  0.00000000  0.00000000  1.0
  F  F3  1  0.15685819  0.84314178  0.22175203  1.0
  F  F4  1  0.15685299  0.31371919  0.22175421  1.0
  F  F5  1  0.31371915  0.15685289  0.77824581  1.0
  F  F6  1  0.68628085  0.84314711  0.22175418  1.0
  F  F7  1  0.84314701  0.68628081  0.77824578  1.0
  F  F8  1  0.84314181  0.15685822  0.77824796  1.0
