# generated using pymatgen
data_Li2SiF6
_symmetry_space_group_name_H-M   'P 1'
_cell_length_a   5.53640392
_cell_length_b   5.53640373
_cell_length_c   5.09174011
_cell_angle_alpha   90.00007622
_cell_angle_beta   89.99986381
_cell_angle_gamma   120.00022401
_symmetry_Int_Tables_number   1
_chemical_formula_structural   Li2SiF6
_chemical_formula_sum   'Li2 Si1 F6'
_cell_volume   135.16100113
_cell_formula_units_Z   1
loop_
 _symmetry_equiv_pos_site_id
 _symmetry_equiv_pos_as_xyz
  1  'x, y, z'
loop_
 _atom_site_type_symbol
 _atom_site_label
 _atom_site_symmetry_multiplicity
 _atom_site_fract_x
 _atom_site_fract_y
 _atom_site_fract_z
 _atom_site_occupancy
  Li  Li0  1  0.33333333  0.66666667  0.22324587  1.0
  Li  Li1  1  0.66666667  0.33333333  0.77675436  1.0
  Si  Si2  1  0.00000000  0.00000000  0.99999997  1.0
  F  F3  1  0.14600043  0.85399937  0.19445897  1.0
  F  F4  1  0.14600145  0.29200403  0.19445680  1.0
  F  F5  1  0.29200418  0.14600161  0.80554271  1.0
  F  F6  1  0.70799572  0.85399838  0.19445706  1.0
  F  F7  1  0.85399849  0.70799595  0.80554319  1.0
  F  F8  1  0.85399955  0.14600066  0.80554106  1.0
