# generated using pymatgen
data_Li2SnO3
_symmetry_space_group_name_H-M   'P 1'
_cell_length_a   5.34872846
_cell_length_b   5.34872845
_cell_length_c   10.09819866
_cell_angle_alpha   84.87427713
_cell_angle_beta   84.87427695
_cell_angle_gamma   120.11961813
_symmetry_Int_Tables_number   1
_chemical_formula_structural   Li2SnO3
_chemical_formula_sum   'Li8 Sn4 O12'
_cell_volume   245.85488802
_cell_formula_units_Z   4
loop_
 _symmetry_equiv_pos_site_id
 _symmetry_equiv_pos_as_xyz
  1  'x, y, z'
loop_
 _atom_site_type_symbol
 _atom_site_label
 _atom_site_symmetry_multiplicity
 _atom_site_fract_x
 _atom_site_fract_y
 _atom_site_fract_z
 _atom_site_occupancy
  Li  Li0  1  0.15840567  0.31597012  0.00051335  1.0
  Li  Li1  1  0.68402988  0.84159433  0.49948665  1.0
  Li  Li2  1  0.84159434  0.68402989  0.99948665  1.0
  Li  Li3  1  0.31597011  0.15840566  0.50051335  1.0
  Li  Li4  1  0.99999999  0.50000000  0.50000000  1.0
  Li  Li5  1  0.50000000  0.00000000  0.00000000  1.0
  Li  Li6  1  0.91478516  0.08521484  0.75000000  1.0
  Li  Li7  1  0.08521484  0.91478515  0.25000000  1.0
  Sn  Sn8  1  0.58226794  0.41773207  0.75000000  1.0
  Sn  Sn9  1  0.75036025  0.24963975  0.25000000  1.0
  Sn  Sn10  1  0.24963975  0.75036025  0.75000000  1.0
  Sn  Sn11  1  0.41773207  0.58226793  0.25000000  1.0
  O  O12  1  0.04262623  0.22529862  0.37023224  1.0
  O  O13  1  0.87581834  0.39532849  0.86769011  1.0
  O  O14  1  0.77470137  0.95737376  0.12976777  1.0
  O  O15  1  0.95737377  0.77470138  0.62976776  1.0
  O  O16  1  0.52733158  0.69493532  0.86771476  1.0
  O  O17  1  0.60467151  0.12418166  0.63230989  1.0
  O  O18  1  0.12418166  0.60467151  0.13230989  1.0
  O  O19  1  0.39532849  0.87581834  0.36769011  1.0
  O  O20  1  0.69493532  0.52733158  0.36771476  1.0
  O  O21  1  0.30506469  0.47266842  0.63228524  1.0
  O  O22  1  0.47266842  0.30506468  0.13228524  1.0
  O  O23  1  0.22529863  0.04262624  0.87023223  1.0
