# generated using pymatgen
data_Li2TeO3
_symmetry_space_group_name_H-M   'P 1'
_cell_length_a   5.68056659
_cell_length_b   5.65047176
_cell_length_c   10.71330061
_cell_angle_alpha   84.18535792
_cell_angle_beta   83.92128741
_cell_angle_gamma   120.65485049
_symmetry_Int_Tables_number   1
_chemical_formula_structural   Li2TeO3
_chemical_formula_sum   'Li8 Te4 O12'
_cell_volume   289.26755715
_cell_formula_units_Z   4
loop_
 _symmetry_equiv_pos_site_id
 _symmetry_equiv_pos_as_xyz
  1  'x, y, z'
loop_
 _atom_site_type_symbol
 _atom_site_label
 _atom_site_symmetry_multiplicity
 _atom_site_fract_x
 _atom_site_fract_y
 _atom_site_fract_z
 _atom_site_occupancy
  Li  Li0  1  0.24694193  0.35868051  0.01899848  1.0
  Li  Li1  1  0.79265881  0.87940631  0.50708937  1.0
  Li  Li2  1  0.89013138  0.81245514  0.99637080  1.0
  Li  Li3  1  0.34155660  0.09489216  0.47670083  1.0
  Li  Li4  1  0.95464849  0.40772775  0.51096337  1.0
  Li  Li5  1  0.42327176  0.96878141  0.99253750  1.0
  Li  Li6  1  0.93400527  0.09861470  0.76860528  1.0
  Li  Li7  1  0.08041681  0.93946616  0.26656142  1.0
  Te  Te8  1  0.56518078  0.41218792  0.78463358  1.0
  Te  Te9  1  0.77734334  0.28907651  0.19315319  1.0
  Te  Te10  1  0.26698899  0.76998882  0.70908488  1.0
  Te  Te11  1  0.40184802  0.57868034  0.29712557  1.0
  O  O12  1  0.11287260  0.21715320  0.38985640  1.0
  O  O13  1  0.76529397  0.27576742  0.86183544  1.0
  O  O14  1  0.86185560  0.02907608  0.13381672  1.0
  O  O15  1  0.01860038  0.85094126  0.63434473  1.0
  O  O16  1  0.60173699  0.68032239  0.88980017  1.0
  O  O17  1  0.59062248  0.04572356  0.58531167  1.0
  O  O18  1  0.06309857  0.60652981  0.07403886  1.0
  O  O19  1  0.27031419  0.78829572  0.37273094  1.0
  O  O20  1  0.68230108  0.61308292  0.38853144  1.0
  O  O21  1  0.19155644  0.45477729  0.63699181  1.0
  O  O22  1  0.45457070  0.20548232  0.12508702  1.0
  O  O23  1  0.21218483  0.12289029  0.88583051  1.0
