# generated using pymatgen
data_Li2TiF6
_symmetry_space_group_name_H-M   'P 1'
_cell_length_a   5.77778214
_cell_length_b   5.77778285
_cell_length_c   5.04326722
_cell_angle_alpha   89.99944563
_cell_angle_beta   90.00054649
_cell_angle_gamma   119.99987735
_symmetry_Int_Tables_number   1
_chemical_formula_structural   Li2TiF6
_chemical_formula_sum   'Li2 Ti1 F6'
_cell_volume   145.80268645
_cell_formula_units_Z   1
loop_
 _symmetry_equiv_pos_site_id
 _symmetry_equiv_pos_as_xyz
  1  'x, y, z'
loop_
 _atom_site_type_symbol
 _atom_site_label
 _atom_site_symmetry_multiplicity
 _atom_site_fract_x
 _atom_site_fract_y
 _atom_site_fract_z
 _atom_site_occupancy
  Li  Li0  1  0.33333333  0.66666667  0.26973500  1.0
  Li  Li1  1  0.66666667  0.33333333  0.73026512  1.0
  Ti  Ti2  1  0.00000033  0.00000069  0.99999952  1.0
  F  F3  1  0.15491812  0.84508179  0.21482885  1.0
  F  F4  1  0.15491792  0.30983130  0.21483013  1.0
  F  F5  1  0.30983120  0.15491785  0.78517000  1.0
  F  F6  1  0.69016839  0.84508189  0.21483024  1.0
  F  F7  1  0.84508199  0.69016856  0.78516974  1.0
  F  F8  1  0.84508208  0.15491798  0.78517139  1.0
