# generated using pymatgen
data_Li2VO3
_symmetry_space_group_name_H-M   'P 1'
_cell_length_a   5.08235979
_cell_length_b   5.08200161
_cell_length_c   9.77464780
_cell_angle_alpha   84.84350891
_cell_angle_beta   84.83396964
_cell_angle_gamma   120.54091730
_symmetry_Int_Tables_number   1
_chemical_formula_structural   Li2VO3
_chemical_formula_sum   'Li8 V4 O12'
_cell_volume   213.83211401
_cell_formula_units_Z   4
loop_
 _symmetry_equiv_pos_site_id
 _symmetry_equiv_pos_as_xyz
  1  'x, y, z'
loop_
 _atom_site_type_symbol
 _atom_site_label
 _atom_site_symmetry_multiplicity
 _atom_site_fract_x
 _atom_site_fract_y
 _atom_site_fract_z
 _atom_site_occupancy
  Li  Li0  1  0.16052119  0.31671470  0.00050781  1.0
  Li  Li1  1  0.68327620  0.83943761  0.49949259  1.0
  Li  Li2  1  0.83947917  0.68329517  0.99949431  1.0
  Li  Li3  1  0.31673346  0.16056232  0.50050949  1.0
  Li  Li4  1  0.99999235  0.49999908  0.50000091  1.0
  Li  Li5  1  0.49999877  0.99999224  0.00000097  1.0
  Li  Li6  1  0.91790812  0.08211765  0.75000107  1.0
  Li  Li7  1  0.08207506  0.91786531  0.24999610  1.0
  V  V8  1  0.57833072  0.42170005  0.75000260  1.0
  V  V9  1  0.75206404  0.24802346  0.25001755  1.0
  V  V10  1  0.24795653  0.75199713  0.74999336  1.0
  V  V11  1  0.42165615  0.57828710  0.24998949  1.0
  O  O12  1  0.04440282  0.23099919  0.36834347  1.0
  O  O13  1  0.88080648  0.40633525  0.86033893  1.0
  O  O14  1  0.76901022  0.95560805  0.13164772  1.0
  O  O15  1  0.95560882  0.76900311  0.63165577  1.0
  O  O16  1  0.52237413  0.68853506  0.86295835  1.0
  O  O17  1  0.59366497  0.11922111  0.63967133  1.0
  O  O18  1  0.11915874  0.59367150  0.13965211  1.0
  O  O19  1  0.40634151  0.88074376  0.36031965  1.0
  O  O20  1  0.68860062  0.52236129  0.36297952  1.0
  O  O21  1  0.31143398  0.47762614  0.63702712  1.0
  O  O22  1  0.47761364  0.31149990  0.13704815  1.0
  O  O23  1  0.23099229  0.04440382  0.86835163  1.0
