# generated using pymatgen
data_Li2VF6
_symmetry_space_group_name_H-M   'P 1'
_cell_length_a   5.79231535
_cell_length_b   5.68410470
_cell_length_c   5.06807635
_cell_angle_alpha   90.01346046
_cell_angle_beta   89.36199819
_cell_angle_gamma   119.35075057
_symmetry_Int_Tables_number   1
_chemical_formula_structural   Li2VF6
_chemical_formula_sum   'Li2 V1 F6'
_cell_volume   145.43119709
_cell_formula_units_Z   1
loop_
 _symmetry_equiv_pos_site_id
 _symmetry_equiv_pos_as_xyz
  1  'x, y, z'
loop_
 _atom_site_type_symbol
 _atom_site_label
 _atom_site_symmetry_multiplicity
 _atom_site_fract_x
 _atom_site_fract_y
 _atom_site_fract_z
 _atom_site_occupancy
  Li  Li0  1  0.33659264  0.66818633  0.26158126  1.0
  Li  Li1  1  0.66340379  0.33181435  0.73841828  1.0
  V  V2  1  0.99999276  0.00000582  0.99999910  1.0
  F  F3  1  0.15143253  0.84546094  0.21422391  1.0
  F  F4  1  0.15149186  0.30620290  0.21428693  1.0
  F  F5  1  0.31062707  0.15514468  0.78520243  1.0
  F  F6  1  0.68937674  0.84485403  0.21479516  1.0
  F  F7  1  0.84850973  0.69379751  0.78571394  1.0
  F  F8  1  0.84857287  0.15453344  0.78577901  1.0
