# generated using pymatgen
data_LiAlSiO4
_symmetry_space_group_name_H-M   'P 1'
_cell_length_a   5.34259686
_cell_length_b   5.34259732
_cell_length_c   8.47397076
_cell_angle_alpha   89.93218097
_cell_angle_beta   89.93217219
_cell_angle_gamma   123.44497360
_symmetry_Int_Tables_number   1
_chemical_formula_structural   LiAlSiO4
_chemical_formula_sum   'Li2 Al2 Si2 O8'
_cell_volume   201.82400572
_cell_formula_units_Z   2
loop_
 _symmetry_equiv_pos_site_id
 _symmetry_equiv_pos_as_xyz
  1  'x, y, z'
loop_
 _atom_site_type_symbol
 _atom_site_label
 _atom_site_symmetry_multiplicity
 _atom_site_fract_x
 _atom_site_fract_y
 _atom_site_fract_z
 _atom_site_occupancy
  Li  Li0  1  0.85029281  0.22185454  0.49338840  1.0
  Li  Li1  1  0.22185436  0.85029274  0.99338835  1.0
  Al  Al2  1  0.69996684  0.36514289  0.18187834  1.0
  Al  Al3  1  0.36514288  0.69996677  0.68187833  1.0
  Si  Si4  1  0.70028667  0.36527093  0.80548799  1.0
  Si  Si5  1  0.36527099  0.70028674  0.30548803  1.0
  O  O6  1  0.51766755  0.50524338  0.74524280  1.0
  O  O7  1  0.59356188  0.22828778  0.98591424  1.0
  O  O8  1  0.63995594  0.09189441  0.68716180  1.0
  O  O9  1  0.62376426  0.06383511  0.30685144  1.0
  O  O10  1  0.50524350  0.51766756  0.24524287  1.0
  O  O11  1  0.22828772  0.59356203  0.48591424  1.0
  O  O12  1  0.09189454  0.63995598  0.18716176  1.0
  O  O13  1  0.06383506  0.62376414  0.80685142  1.0
