# generated using pymatgen
data_LiAlSiO4
_symmetry_space_group_name_H-M   'P 1'
_cell_length_a   4.98864719
_cell_length_b   6.64149226
_cell_length_c   10.08041484
_cell_angle_alpha   90.00000026
_cell_angle_beta   89.99999983
_cell_angle_gamma   89.99999991
_symmetry_Int_Tables_number   1
_chemical_formula_structural   LiAlSiO4
_chemical_formula_sum   'Li4 Al4 Si4 O16'
_cell_volume   333.98492644
_cell_formula_units_Z   4
loop_
 _symmetry_equiv_pos_site_id
 _symmetry_equiv_pos_as_xyz
  1  'x, y, z'
loop_
 _atom_site_type_symbol
 _atom_site_label
 _atom_site_symmetry_multiplicity
 _atom_site_fract_x
 _atom_site_fract_y
 _atom_site_fract_z
 _atom_site_occupancy
  Li  Li0  1  0.24482993  0.01142562  0.14990528  1.0
  Li  Li1  1  0.74482991  0.51142560  0.35009477  1.0
  Li  Li2  1  0.24482992  0.48857439  0.64990529  1.0
  Li  Li3  1  0.74482991  0.98857439  0.85009477  1.0
  Al  Al4  1  0.24835358  0.51226221  0.17131651  1.0
  Al  Al5  1  0.74835357  0.01226221  0.32868348  1.0
  Al  Al6  1  0.24835357  0.98773779  0.67131650  1.0
  Al  Al7  1  0.74835357  0.48773779  0.82868348  1.0
  Si  Si8  1  0.74929284  0.27502473  0.09328438  1.0
  Si  Si9  1  0.24929283  0.77502471  0.40671563  1.0
  Si  Si10  1  0.74929283  0.22497528  0.59328434  1.0
  Si  Si11  1  0.24929283  0.72497528  0.90671564  1.0
  O  O12  1  0.19028262  0.72586291  0.06680458  1.0
  O  O13  1  0.07309343  0.29263330  0.12225660  1.0
  O  O14  1  0.64365413  0.06524423  0.16304395  1.0
  O  O15  1  0.59634653  0.46119763  0.16905697  1.0
  O  O16  1  0.09634652  0.96119762  0.33094304  1.0
  O  O17  1  0.14365413  0.56524423  0.33695604  1.0
  O  O18  1  0.57309343  0.79263331  0.37774341  1.0
  O  O19  1  0.69028260  0.22586292  0.43319540  1.0
  O  O20  1  0.19028259  0.77413708  0.56680461  1.0
  O  O21  1  0.07309344  0.20736669  0.62225657  1.0
  O  O22  1  0.64365413  0.43475577  0.66304395  1.0
  O  O23  1  0.59634651  0.03880236  0.66905695  1.0
  O  O24  1  0.09634651  0.53880237  0.83094301  1.0
  O  O25  1  0.14365412  0.93475578  0.83695604  1.0
  O  O26  1  0.57309343  0.70736670  0.87774338  1.0
  O  O27  1  0.69028261  0.27413710  0.93319540  1.0
