# generated using pymatgen
data_LiAlSiO4
_symmetry_space_group_name_H-M   'P 1'
_cell_length_a   4.69900644
_cell_length_b   5.62441870
_cell_length_c   9.84872447
_cell_angle_alpha   90.00000000
_cell_angle_beta   90.00000000
_cell_angle_gamma   90.00000000
_symmetry_Int_Tables_number   1
_chemical_formula_structural   LiAlSiO4
_chemical_formula_sum   'Li4 Al4 Si4 O16'
_cell_volume   260.29370876
_cell_formula_units_Z   4
loop_
 _symmetry_equiv_pos_site_id
 _symmetry_equiv_pos_as_xyz
  1  'x, y, z'
loop_
 _atom_site_type_symbol
 _atom_site_label
 _atom_site_symmetry_multiplicity
 _atom_site_fract_x
 _atom_site_fract_y
 _atom_site_fract_z
 _atom_site_occupancy
  Li  Li0  1  0.00000000  0.00000000  0.00000000  1.0
  Li  Li1  1  0.50000000  0.00000000  0.50000000  1.0
  Li  Li2  1  0.00000000  0.50000000  0.00000000  1.0
  Li  Li3  1  0.50000000  0.50000000  0.50000000  1.0
  Al  Al4  1  0.01044102  0.75000000  0.27088760  1.0
  Al  Al5  1  0.48955897  0.75000000  0.77088760  1.0
  Al  Al6  1  0.98955898  0.25000000  0.72911240  1.0
  Al  Al7  1  0.51044103  0.25000000  0.22911240  1.0
  Si  Si8  1  0.55683166  0.75000000  0.09420399  1.0
  Si  Si9  1  0.94316834  0.75000000  0.59420400  1.0
  Si  Si10  1  0.44316834  0.25000000  0.90579601  1.0
  Si  Si11  1  0.05683166  0.25000000  0.40579600  1.0
  O  O12  1  0.77690731  0.52898292  0.67536641  1.0
  O  O13  1  0.22309269  0.47101708  0.32463359  1.0
  O  O14  1  0.72309269  0.52898292  0.17536641  1.0
  O  O15  1  0.77690731  0.97101708  0.67536641  1.0
  O  O16  1  0.27690731  0.02898292  0.82463359  1.0
  O  O17  1  0.78687533  0.25000000  0.89409130  1.0
  O  O18  1  0.27690731  0.47101708  0.82463359  1.0
  O  O19  1  0.22309269  0.02898292  0.32463359  1.0
  O  O20  1  0.21312467  0.75000000  0.10590870  1.0
  O  O21  1  0.71312467  0.25000000  0.39409130  1.0
  O  O22  1  0.67515582  0.75000000  0.93816508  1.0
  O  O23  1  0.28687533  0.75000000  0.60590870  1.0
  O  O24  1  0.82484419  0.75000000  0.43816508  1.0
  O  O25  1  0.17515581  0.25000000  0.56183492  1.0
  O  O26  1  0.32484418  0.25000000  0.06183492  1.0
  O  O27  1  0.72309269  0.97101708  0.17536641  1.0
