# generated using pymatgen
data_LiCaPO4
_symmetry_space_group_name_H-M   'P 1'
_cell_length_a   5.30134384
_cell_length_b   8.47920558
_cell_length_c   9.04507317
_cell_angle_alpha   90.00006571
_cell_angle_beta   89.99998932
_cell_angle_gamma   89.99999519
_symmetry_Int_Tables_number   1
_chemical_formula_structural   LiCaPO4
_chemical_formula_sum   'Li4 Ca4 P4 O16'
_cell_volume   406.58675080
_cell_formula_units_Z   4
loop_
 _symmetry_equiv_pos_site_id
 _symmetry_equiv_pos_as_xyz
  1  'x, y, z'
loop_
 _atom_site_type_symbol
 _atom_site_label
 _atom_site_symmetry_multiplicity
 _atom_site_fract_x
 _atom_site_fract_y
 _atom_site_fract_z
 _atom_site_occupancy
  Li  Li0  1  0.90631439  0.05655023  0.59615414  1.0
  Li  Li1  1  0.40631459  0.44345004  0.09615450  1.0
  Li  Li2  1  0.90631485  0.55654997  0.90384526  1.0
  Li  Li3  1  0.40631447  0.94344974  0.40384550  1.0
  Ca  Ca4  1  0.01963516  0.16861710  0.01792422  1.0
  Ca  Ca5  1  0.51963507  0.33138284  0.51792449  1.0
  Ca  Ca6  1  0.01963508  0.66861714  0.48207560  1.0
  Ca  Ca7  1  0.51963471  0.83138290  0.98207586  1.0
  P  P8  1  0.56701681  0.24086888  0.86226120  1.0
  P  P9  1  0.06701449  0.25913124  0.36226540  1.0
  P  P10  1  0.56701530  0.74086845  0.63773453  1.0
  P  P11  1  0.06702081  0.75913193  0.13773869  1.0
  O  O12  1  0.60594985  0.08766108  0.95554604  1.0
  O  O13  1  0.20347527  0.12620399  0.45359303  1.0
  O  O14  1  0.28545907  0.28037299  0.84474584  1.0
  O  O15  1  0.70414931  0.21568569  0.71200504  1.0
  O  O16  1  0.20415136  0.28431458  0.21200305  1.0
  O  O17  1  0.78546007  0.21962685  0.34474609  1.0
  O  O18  1  0.70347558  0.37379641  0.95359320  1.0
  O  O19  1  0.10594933  0.41233747  0.45554544  1.0
  O  O20  1  0.60594925  0.58766259  0.54445483  1.0
  O  O21  1  0.20347502  0.62620385  0.04640690  1.0
  O  O22  1  0.28545937  0.78037314  0.65525402  1.0
  O  O23  1  0.70415124  0.71568554  0.78799689  1.0
  O  O24  1  0.20414868  0.78431411  0.28799446  1.0
  O  O25  1  0.78545602  0.71962671  0.15525443  1.0
  O  O26  1  0.70347510  0.87379599  0.54640694  1.0
  O  O27  1  0.10594974  0.91233852  0.04445439  1.0
