# generated using pymatgen
data_LiCdF3
_symmetry_space_group_name_H-M   'P 1'
_cell_length_a   7.11224805
_cell_length_b   8.13327737
_cell_length_c   12.42589741
_cell_angle_alpha   105.28301714
_cell_angle_beta   94.18178220
_cell_angle_gamma   90.75802358
_symmetry_Int_Tables_number   1
_chemical_formula_structural   LiCdF3
_chemical_formula_sum   'Li10 Cd10 F30'
_cell_volume   691.12813150
_cell_formula_units_Z   10
loop_
 _symmetry_equiv_pos_site_id
 _symmetry_equiv_pos_as_xyz
  1  'x, y, z'
loop_
 _atom_site_type_symbol
 _atom_site_label
 _atom_site_symmetry_multiplicity
 _atom_site_fract_x
 _atom_site_fract_y
 _atom_site_fract_z
 _atom_site_occupancy
  Li  Li0  1  0.85253834  0.91695286  0.36023080  1.0
  Li  Li1  1  0.75760359  0.74144760  0.09298783  1.0
  Li  Li2  1  0.37397552  0.73691292  0.53826041  1.0
  Li  Li3  1  0.49960282  0.81645331  0.86650886  1.0
  Li  Li4  1  0.30324259  0.53279317  0.27153434  1.0
  Li  Li5  1  0.69675738  0.46720683  0.72846567  1.0
  Li  Li6  1  0.50039716  0.18354674  0.13349111  1.0
  Li  Li7  1  0.62602452  0.26308706  0.46173960  1.0
  Li  Li8  1  0.24239643  0.25855241  0.90701214  1.0
  Li  Li9  1  0.14746164  0.08304712  0.63976921  1.0
  Cd  Cd10  1  0.94734980  0.88558898  0.84954546  1.0
  Cd  Cd11  1  0.41238823  0.91466166  0.34323236  1.0
  Cd  Cd12  1  0.87960890  0.68656336  0.56275707  1.0
  Cd  Cd13  1  0.77652969  0.51915914  0.26685518  1.0
  Cd  Cd14  1  0.26527328  0.72705901  0.03684766  1.0
  Cd  Cd15  1  0.73472674  0.27294099  0.96315234  1.0
  Cd  Cd16  1  0.22347029  0.48084087  0.73314482  1.0
  Cd  Cd17  1  0.12039115  0.31343663  0.43724294  1.0
  Cd  Cd18  1  0.58761175  0.08533832  0.65676769  1.0
  Cd  Cd19  1  0.05265019  0.11441104  0.15045455  1.0
  F  F20  1  0.96511031  0.84361273  0.03482974  1.0
  F  F21  1  0.97759034  0.94209399  0.68032139  1.0
  F  F22  1  0.67939383  0.79817496  0.24283365  1.0
  F  F23  1  0.94083290  0.72505077  0.39910765  1.0
  F  F24  1  0.55781899  0.75969630  0.00035362  1.0
  F  F25  1  0.82336533  0.51696886  0.08825290  1.0
  F  F26  1  0.66444128  0.98752732  0.84946712  1.0
  F  F27  1  0.60941126  0.80183580  0.61772872  1.0
  F  F28  1  0.91456807  0.61080509  0.73012469  1.0
  F  F29  1  0.31170684  0.96540662  0.53871113  1.0
  F  F30  1  0.23964463  0.71098340  0.20842092  1.0
  F  F31  1  0.81057206  0.42037337  0.43654960  1.0
  F  F32  1  0.43926000  0.67143223  0.39561431  1.0
  F  F33  1  0.76251605  0.18688267  0.13124171  1.0
  F  F34  1  0.49840469  0.39745763  0.22754946  1.0
  F  F35  1  0.50159530  0.60254240  0.77245051  1.0
  F  F36  1  0.23748395  0.81311736  0.86875830  1.0
  F  F37  1  0.56073996  0.32856771  0.60438569  1.0
  F  F38  1  0.18942798  0.57962663  0.56345043  1.0
  F  F39  1  0.76035538  0.28901661  0.79157907  1.0
  F  F40  1  0.68829316  0.03459338  0.46128887  1.0
  F  F41  1  0.08543190  0.38919491  0.26987531  1.0
  F  F42  1  0.39058874  0.19816418  0.38227126  1.0
  F  F43  1  0.33555870  0.01247271  0.15053284  1.0
  F  F44  1  0.17663470  0.48303117  0.91174710  1.0
  F  F45  1  0.44218103  0.24030369  0.99964634  1.0
  F  F46  1  0.05916712  0.27494921  0.60089237  1.0
  F  F47  1  0.32060614  0.20182502  0.75716637  1.0
  F  F48  1  0.02240963  0.05790601  0.31967861  1.0
  F  F49  1  0.03488970  0.15638726  0.96517027  1.0
