# generated using pymatgen
data_LiCoSiO4
_symmetry_space_group_name_H-M   'P 1'
_cell_length_a   5.06151997
_cell_length_b   6.65969145
_cell_length_c   10.33895621
_cell_angle_alpha   90.00000552
_cell_angle_beta   90.00000134
_cell_angle_gamma   90.00000655
_symmetry_Int_Tables_number   1
_chemical_formula_structural   LiCoSiO4
_chemical_formula_sum   'Li4 Co4 Si4 O16'
_cell_volume   348.50720327
_cell_formula_units_Z   4
loop_
 _symmetry_equiv_pos_site_id
 _symmetry_equiv_pos_as_xyz
  1  'x, y, z'
loop_
 _atom_site_type_symbol
 _atom_site_label
 _atom_site_symmetry_multiplicity
 _atom_site_fract_x
 _atom_site_fract_y
 _atom_site_fract_z
 _atom_site_occupancy
  Li  Li0  1  0.24471814  0.00821657  0.15252468  1.0
  Li  Li1  1  0.74471813  0.50821654  0.34747562  1.0
  Li  Li2  1  0.24471822  0.49178348  0.65252449  1.0
  Li  Li3  1  0.74471822  0.99178347  0.84747540  1.0
  Co  Co4  1  0.24683676  0.51111629  0.16968394  1.0
  Co  Co5  1  0.74683677  0.01111631  0.33031600  1.0
  Co  Co6  1  0.24683668  0.98888366  0.66968389  1.0
  Co  Co7  1  0.74683671  0.48888368  0.83031608  1.0
  Si  Si8  1  0.74800176  0.26717315  0.09383718  1.0
  Si  Si9  1  0.24800175  0.76717311  0.40616278  1.0
  Si  Si10  1  0.74800184  0.23282690  0.59383803  1.0
  Si  Si11  1  0.24800187  0.73282690  0.90616200  1.0
  O  O12  1  0.19579390  0.73477001  0.06307751  1.0
  O  O13  1  0.06868520  0.27682104  0.12405520  1.0
  O  O14  1  0.63281357  0.05904939  0.15929312  1.0
  O  O15  1  0.60900346  0.46002191  0.16713405  1.0
  O  O16  1  0.10900348  0.96002193  0.33286597  1.0
  O  O17  1  0.13281359  0.55904942  0.34070683  1.0
  O  O18  1  0.56868520  0.77682105  0.37594479  1.0
  O  O19  1  0.69579385  0.23476997  0.43692251  1.0
  O  O20  1  0.19579421  0.76523035  0.56307706  1.0
  O  O21  1  0.06868500  0.22317865  0.62405528  1.0
  O  O22  1  0.63281397  0.44095035  0.65929323  1.0
  O  O23  1  0.60900322  0.03997826  0.66713383  1.0
  O  O24  1  0.10900322  0.53997826  0.83286618  1.0
  O  O25  1  0.13281394  0.94095034  0.84070675  1.0
  O  O26  1  0.56868506  0.72317862  0.87594474  1.0
  O  O27  1  0.69579426  0.26523040  0.93692288  1.0
