# generated using pymatgen
data_LiCoF4
_symmetry_space_group_name_H-M   'P 1'
_cell_length_a   6.01552121
_cell_length_b   6.01568700
_cell_length_c   6.01569541
_cell_angle_alpha   131.86308973
_cell_angle_beta   131.86244665
_cell_angle_gamma   70.44601410
_symmetry_Int_Tables_number   1
_chemical_formula_structural   LiCoF4
_chemical_formula_sum   'Li2 Co2 F8'
_cell_volume   118.31491425
_cell_formula_units_Z   2
loop_
 _symmetry_equiv_pos_site_id
 _symmetry_equiv_pos_as_xyz
  1  'x, y, z'
loop_
 _atom_site_type_symbol
 _atom_site_label
 _atom_site_symmetry_multiplicity
 _atom_site_fract_x
 _atom_site_fract_y
 _atom_site_fract_z
 _atom_site_occupancy
  Li  Li0  1  0.74999089  0.25000400  0.49999757  1.0
  Li  Li1  1  0.00000914  0.99999603  0.00000243  1.0
  Co  Co2  1  0.49999689  0.49999280  0.99998849  1.0
  Co  Co3  1  0.25000310  0.75000719  0.50001151  1.0
  F  F4  1  0.12077948  0.14511586  0.60103351  1.0
  F  F5  1  0.54408124  0.51975505  0.39897378  1.0
  F  F6  1  0.85488239  0.45591711  0.97566767  1.0
  F  F7  1  0.26975423  0.37077366  0.47566877  1.0
  F  F8  1  0.89511760  0.79408288  0.52433232  1.0
  F  F9  1  0.48024577  0.87922634  0.02433124  1.0
  F  F10  1  0.20591873  0.73024494  0.10102619  1.0
  F  F11  1  0.62922055  0.10488414  0.89896653  1.0
