# generated using pymatgen
data_LiCoF3
_symmetry_space_group_name_H-M   'P 1'
_cell_length_a   6.44127795
_cell_length_b   6.44135902
_cell_length_c   5.79350027
_cell_angle_alpha   87.39737393
_cell_angle_beta   87.39799199
_cell_angle_gamma   84.36583228
_symmetry_Int_Tables_number   1
_chemical_formula_structural   LiCoF3
_chemical_formula_sum   'Li4 Co4 F12'
_cell_volume   238.76499157
_cell_formula_units_Z   4
loop_
 _symmetry_equiv_pos_site_id
 _symmetry_equiv_pos_as_xyz
  1  'x, y, z'
loop_
 _atom_site_type_symbol
 _atom_site_label
 _atom_site_symmetry_multiplicity
 _atom_site_fract_x
 _atom_site_fract_y
 _atom_site_fract_z
 _atom_site_occupancy
  Li  Li0  1  0.66802670  0.66802494  0.87299278  1.0
  Li  Li1  1  0.67279464  0.32720671  0.50000131  1.0
  Li  Li2  1  0.32720523  0.67279319  0.49999903  1.0
  Li  Li3  1  0.33197341  0.33197505  0.12700721  1.0
  Co  Co4  1  0.76375411  0.76377267  0.28078251  1.0
  Co  Co5  1  0.81582544  0.18417646  0.99999925  1.0
  Co  Co6  1  0.18417509  0.81582341  0.00000053  1.0
  Co  Co7  1  0.23624817  0.23622448  0.71921762  1.0
  F  F8  1  0.86610570  0.86610733  0.93351071  1.0
  F  F9  1  0.63098742  0.63098834  0.57163460  1.0
  F  F10  1  0.92818213  0.27919526  0.67930988  1.0
  F  F11  1  0.27918718  0.92818503  0.67930866  1.0
  F  F12  1  0.47370209  0.77285929  0.13134214  1.0
  F  F13  1  0.77286578  0.47369065  0.13134318  1.0
  F  F14  1  0.52629641  0.22714099  0.86865817  1.0
  F  F15  1  0.22713394  0.52631108  0.86865638  1.0
  F  F16  1  0.07181783  0.72080596  0.32069008  1.0
  F  F17  1  0.72081145  0.07181508  0.32069149  1.0
  F  F18  1  0.36901247  0.36901186  0.42836519  1.0
  F  F19  1  0.13389480  0.13389218  0.06648928  1.0
