# generated using pymatgen
data_LiFeSe2
_symmetry_space_group_name_H-M   'P 1'
_cell_length_a   6.62693767
_cell_length_b   6.83769863
_cell_length_c   8.32154656
_cell_angle_alpha   89.99977086
_cell_angle_beta   90.00019240
_cell_angle_gamma   89.99904389
_symmetry_Int_Tables_number   1
_chemical_formula_structural   LiFeSe2
_chemical_formula_sum   'Li4 Fe4 Se8'
_cell_volume   377.07426108
_cell_formula_units_Z   4
loop_
 _symmetry_equiv_pos_site_id
 _symmetry_equiv_pos_as_xyz
  1  'x, y, z'
loop_
 _atom_site_type_symbol
 _atom_site_label
 _atom_site_symmetry_multiplicity
 _atom_site_fract_x
 _atom_site_fract_y
 _atom_site_fract_z
 _atom_site_occupancy
  Li  Li0  1  0.00232815  0.58549632  0.87929783  1.0
  Li  Li1  1  0.50232771  0.41450444  0.12070285  1.0
  Li  Li2  1  0.50232806  0.91450332  0.37929849  1.0
  Li  Li3  1  0.00232788  0.08549630  0.62070179  1.0
  Fe  Fe4  1  0.99863055  0.57233410  0.37464618  1.0
  Fe  Fe5  1  0.49863071  0.42766719  0.62535284  1.0
  Fe  Fe6  1  0.49863099  0.92766688  0.87464672  1.0
  Fe  Fe7  1  0.99863010  0.07233331  0.12535239  1.0
  Se  Se8  1  0.11135936  0.90399097  0.36183842  1.0
  Se  Se9  1  0.61135835  0.09600737  0.63816420  1.0
  Se  Se10  1  0.61135841  0.59600835  0.86183703  1.0
  Se  Se11  1  0.11135933  0.40399255  0.13816315  1.0
  Se  Se12  1  0.63748291  0.56025521  0.38535467  1.0
  Se  Se13  1  0.13748234  0.43974440  0.61464493  1.0
  Se  Se14  1  0.13748466  0.93974402  0.88535373  1.0
  Se  Se15  1  0.63748050  0.06025529  0.11464478  1.0
