# generated using pymatgen
data_LiGaSiO4
_symmetry_space_group_name_H-M   'P 1'
_cell_length_a   5.04028472
_cell_length_b   6.71994714
_cell_length_c   10.23684573
_cell_angle_alpha   90.00001012
_cell_angle_beta   89.99998009
_cell_angle_gamma   89.99998110
_symmetry_Int_Tables_number   1
_chemical_formula_structural   LiGaSiO4
_chemical_formula_sum   'Li4 Ga4 Si4 O16'
_cell_volume   346.72653961
_cell_formula_units_Z   4
loop_
 _symmetry_equiv_pos_site_id
 _symmetry_equiv_pos_as_xyz
  1  'x, y, z'
loop_
 _atom_site_type_symbol
 _atom_site_label
 _atom_site_symmetry_multiplicity
 _atom_site_fract_x
 _atom_site_fract_y
 _atom_site_fract_z
 _atom_site_occupancy
  Li  Li0  1  0.24584064  0.01033942  0.14952586  1.0
  Li  Li1  1  0.74584051  0.51033914  0.35047460  1.0
  Li  Li2  1  0.24584068  0.48966070  0.64952541  1.0
  Li  Li3  1  0.74584069  0.98966037  0.85047459  1.0
  Ga  Ga4  1  0.24785239  0.51104893  0.16970402  1.0
  Ga  Ga5  1  0.74785228  0.01104897  0.33029596  1.0
  Ga  Ga6  1  0.24785218  0.98895123  0.66970348  1.0
  Ga  Ga7  1  0.74785234  0.48895139  0.83029619  1.0
  Si  Si8  1  0.74897120  0.27092746  0.09331011  1.0
  Si  Si9  1  0.24897149  0.77092703  0.40669022  1.0
  Si  Si10  1  0.74897009  0.22907262  0.59330388  1.0
  Si  Si11  1  0.24897022  0.72907274  0.90669614  1.0
  O  O12  1  0.18522178  0.73430275  0.06411574  1.0
  O  O13  1  0.07105411  0.28010770  0.12093870  1.0
  O  O14  1  0.63577501  0.06398111  0.15957420  1.0
  O  O15  1  0.61113937  0.46121594  0.16855069  1.0
  O  O16  1  0.11113892  0.96121633  0.33144933  1.0
  O  O17  1  0.13577490  0.56398096  0.34042573  1.0
  O  O18  1  0.57105375  0.78010778  0.37906128  1.0
  O  O19  1  0.68522177  0.23430262  0.43588429  1.0
  O  O20  1  0.18522064  0.76569778  0.56411957  1.0
  O  O21  1  0.07105619  0.21989168  0.62093950  1.0
  O  O22  1  0.63577430  0.43602069  0.65957539  1.0
  O  O23  1  0.61113745  0.03878207  0.66855171  1.0
  O  O24  1  0.11113766  0.53878219  0.83144817  1.0
  O  O25  1  0.13577435  0.93602077  0.84042452  1.0
  O  O26  1  0.57105632  0.71989169  0.87906055  1.0
  O  O27  1  0.68522077  0.26569795  0.93588016  1.0
