# generated using pymatgen
data_LiGaO2
_symmetry_space_group_name_H-M   'P 1'
_cell_length_a   2.90074124
_cell_length_b   4.98412812
_cell_length_c   5.14513267
_cell_angle_alpha   90.01881920
_cell_angle_beta   90.00001258
_cell_angle_gamma   90.00003829
_symmetry_Int_Tables_number   1
_chemical_formula_structural   LiGaO2
_chemical_formula_sum   'Li2 Ga2 O4'
_cell_volume   74.38660557
_cell_formula_units_Z   2
loop_
 _symmetry_equiv_pos_site_id
 _symmetry_equiv_pos_as_xyz
  1  'x, y, z'
loop_
 _atom_site_type_symbol
 _atom_site_label
 _atom_site_symmetry_multiplicity
 _atom_site_fract_x
 _atom_site_fract_y
 _atom_site_fract_z
 _atom_site_occupancy
  Li  Li0  1  0.50000050  0.07460891  0.98622958  1.0
  Li  Li1  1  0.99999747  0.92461654  0.48643739  1.0
  Ga  Ga2  1  0.50000005  0.41489569  0.50935953  1.0
  Ga  Ga3  1  0.00000053  0.58506313  0.00893761  1.0
  O  O4  1  0.00000135  0.26427798  0.75306333  1.0
  O  O5  1  0.49999926  0.73600565  0.25087467  1.0
  O  O6  1  0.99999898  0.28068595  0.26691385  1.0
  O  O7  1  0.50000186  0.71984615  0.76478404  1.0
