# generated using pymatgen
data_LiGeBiO4
_symmetry_space_group_name_H-M   'P 1'
_cell_length_a   5.04234819
_cell_length_b   7.45926818
_cell_length_c   10.82089132
_cell_angle_alpha   89.99995900
_cell_angle_beta   89.99993642
_cell_angle_gamma   89.99996846
_symmetry_Int_Tables_number   1
_chemical_formula_structural   LiGeBiO4
_chemical_formula_sum   'Li4 Ge4 Bi4 O16'
_cell_volume   406.99782506
_cell_formula_units_Z   4
loop_
 _symmetry_equiv_pos_site_id
 _symmetry_equiv_pos_as_xyz
  1  'x, y, z'
loop_
 _atom_site_type_symbol
 _atom_site_label
 _atom_site_symmetry_multiplicity
 _atom_site_fract_x
 _atom_site_fract_y
 _atom_site_fract_z
 _atom_site_occupancy
  Li  Li0  1  0.24121091  0.00294506  0.15824486  1.0
  Li  Li1  1  0.74121123  0.50294533  0.34175483  1.0
  Li  Li2  1  0.24121090  0.49705459  0.65824502  1.0
  Li  Li3  1  0.74121147  0.99705504  0.84175512  1.0
  Ge  Ge4  1  0.74582137  0.76269210  0.08899210  1.0
  Ge  Ge5  1  0.24582144  0.26269258  0.41100803  1.0
  Ge  Ge6  1  0.74582119  0.73730759  0.58899209  1.0
  Ge  Ge7  1  0.24582119  0.23730788  0.91100793  1.0
  Bi  Bi8  1  0.72721365  0.25208639  0.12419398  1.0
  Bi  Bi9  1  0.22721470  0.75208670  0.37580616  1.0
  Bi  Bi10  1  0.72721417  0.24791314  0.62419385  1.0
  Bi  Bi11  1  0.22721533  0.74791372  0.87580582  1.0
  O  O12  1  0.14164323  0.22718650  0.07093969  1.0
  O  O13  1  0.10179672  0.78564339  0.06950489  1.0
  O  O14  1  0.66199168  0.56458937  0.16602428  1.0
  O  O15  1  0.62267880  0.95715793  0.16219636  1.0
  O  O16  1  0.12267918  0.45715799  0.33780361  1.0
  O  O17  1  0.16199194  0.06458892  0.33397595  1.0
  O  O18  1  0.60179666  0.28564363  0.43049473  1.0
  O  O19  1  0.64164418  0.72718775  0.42906033  1.0
  O  O20  1  0.14164384  0.27281276  0.57093976  1.0
  O  O21  1  0.10179651  0.71435615  0.56950529  1.0
  O  O22  1  0.66199188  0.93541054  0.66602452  1.0
  O  O23  1  0.62267879  0.54284172  0.66219633  1.0
  O  O24  1  0.12267901  0.04284211  0.83780353  1.0
  O  O25  1  0.16199156  0.43541108  0.83397591  1.0
  O  O26  1  0.60179624  0.21435634  0.93049474  1.0
  O  O27  1  0.64164423  0.77281372  0.92906029  1.0
