# generated using pymatgen
data_LiHgF3
_symmetry_space_group_name_H-M   'P 1'
_cell_length_a   7.08019010
_cell_length_b   8.23533318
_cell_length_c   12.81233724
_cell_angle_alpha   104.69185018
_cell_angle_beta   94.17581328
_cell_angle_gamma   90.16865928
_symmetry_Int_Tables_number   1
_chemical_formula_structural   LiHgF3
_chemical_formula_sum   'Li10 Hg10 F30'
_cell_volume   720.53639603
_cell_formula_units_Z   10
loop_
 _symmetry_equiv_pos_site_id
 _symmetry_equiv_pos_as_xyz
  1  'x, y, z'
loop_
 _atom_site_type_symbol
 _atom_site_label
 _atom_site_symmetry_multiplicity
 _atom_site_fract_x
 _atom_site_fract_y
 _atom_site_fract_z
 _atom_site_occupancy
  Li  Li0  1  0.85738748  0.91906093  0.36094585  1.0
  Li  Li1  1  0.75466400  0.74750829  0.09818401  1.0
  Li  Li2  1  0.36752948  0.73915629  0.52827369  1.0
  Li  Li3  1  0.50121169  0.80787072  0.87278396  1.0
  Li  Li4  1  0.29424569  0.54066450  0.27541979  1.0
  Li  Li5  1  0.70575431  0.45933550  0.72458021  1.0
  Li  Li6  1  0.49878832  0.19212928  0.12721604  1.0
  Li  Li7  1  0.63247051  0.26084371  0.47172631  1.0
  Li  Li8  1  0.24533600  0.25249171  0.90181599  1.0
  Li  Li9  1  0.14261251  0.08093908  0.63905415  1.0
  Hg  Hg10  1  0.94799173  0.88464504  0.84956180  1.0
  Hg  Hg11  1  0.40626956  0.92731805  0.34272801  1.0
  Hg  Hg12  1  0.87428679  0.68808502  0.56099255  1.0
  Hg  Hg13  1  0.76267927  0.52540724  0.27312695  1.0
  Hg  Hg14  1  0.25543233  0.70413418  0.03947068  1.0
  Hg  Hg15  1  0.74456768  0.29586582  0.96052933  1.0
  Hg  Hg16  1  0.23732074  0.47459275  0.72687305  1.0
  Hg  Hg17  1  0.12571320  0.31191498  0.43900745  1.0
  Hg  Hg18  1  0.59373044  0.07268195  0.65727199  1.0
  Hg  Hg19  1  0.05200827  0.11535496  0.15043820  1.0
  F  F20  1  0.95914611  0.83301644  0.03701833  1.0
  F  F21  1  0.95073050  0.95198015  0.67191425  1.0
  F  F22  1  0.68875706  0.81410078  0.24295326  1.0
  F  F23  1  0.94471645  0.72255920  0.39739490  1.0
  F  F24  1  0.54891143  0.76141036  0.00689690  1.0
  F  F25  1  0.83001530  0.52591993  0.09348382  1.0
  F  F26  1  0.66415118  0.97450094  0.85193355  1.0
  F  F27  1  0.58652244  0.78913019  0.62258542  1.0
  F  F28  1  0.91613087  0.60024920  0.72267168  1.0
  F  F29  1  0.30169238  0.96393296  0.53722241  1.0
  F  F30  1  0.22804056  0.71827225  0.21398420  1.0
  F  F31  1  0.79932970  0.42008438  0.44229218  1.0
  F  F32  1  0.44715612  0.67557680  0.39084068  1.0
  F  F33  1  0.76374711  0.19047079  0.13811954  1.0
  F  F34  1  0.48380190  0.41047885  0.21098512  1.0
  F  F35  1  0.51619810  0.58952115  0.78901488  1.0
  F  F36  1  0.23625290  0.80952921  0.86188046  1.0
  F  F37  1  0.55284387  0.32442320  0.60915932  1.0
  F  F38  1  0.20067029  0.57991563  0.55770782  1.0
  F  F39  1  0.77195944  0.28172775  0.78601580  1.0
  F  F40  1  0.69830761  0.03606705  0.46277759  1.0
  F  F41  1  0.08386913  0.39975080  0.27732832  1.0
  F  F42  1  0.41347755  0.21086981  0.37741458  1.0
  F  F43  1  0.33584883  0.02549905  0.14806645  1.0
  F  F44  1  0.16998471  0.47408007  0.90651618  1.0
  F  F45  1  0.45108857  0.23858964  0.99310311  1.0
  F  F46  1  0.05528355  0.27744080  0.60260511  1.0
  F  F47  1  0.31124294  0.18589922  0.75704674  1.0
  F  F48  1  0.04926949  0.04801985  0.32808575  1.0
  F  F49  1  0.04085389  0.16698356  0.96298167  1.0
