# generated using pymatgen
data_LiHg2F5
_symmetry_space_group_name_H-M   'P 1'
_cell_length_a   7.22643617
_cell_length_b   6.88664315
_cell_length_c   9.70770523
_cell_angle_alpha   83.87742691
_cell_angle_beta   90.00000225
_cell_angle_gamma   90.00000094
_symmetry_Int_Tables_number   1
_chemical_formula_structural   LiHg2F5
_chemical_formula_sum   'Li4 Hg8 F20'
_cell_volume   480.35688967
_cell_formula_units_Z   4
loop_
 _symmetry_equiv_pos_site_id
 _symmetry_equiv_pos_as_xyz
  1  'x, y, z'
loop_
 _atom_site_type_symbol
 _atom_site_label
 _atom_site_symmetry_multiplicity
 _atom_site_fract_x
 _atom_site_fract_y
 _atom_site_fract_z
 _atom_site_occupancy
  Li  Li0  1  0.11150196  0.97712804  0.20272850  1.0
  Li  Li1  1  0.38849801  0.47712807  0.20272836  1.0
  Li  Li2  1  0.61150196  0.52287195  0.79727163  1.0
  Li  Li3  1  0.88849805  0.02287202  0.79727149  1.0
  Hg  Hg4  1  0.65147308  0.97681634  0.13669137  1.0
  Hg  Hg5  1  0.84852694  0.47681628  0.13669140  1.0
  Hg  Hg6  1  0.62128657  0.25107223  0.47043351  1.0
  Hg  Hg7  1  0.12128664  0.24892777  0.52956647  1.0
  Hg  Hg8  1  0.87871338  0.75107223  0.47043354  1.0
  Hg  Hg9  1  0.37871340  0.74892776  0.52956650  1.0
  Hg  Hg10  1  0.15147312  0.52318374  0.86330859  1.0
  Hg  Hg11  1  0.34852683  0.02318365  0.86330863  1.0
  F  F12  1  0.33104427  0.98566000  0.10574734  1.0
  F  F13  1  0.92272669  0.14995583  0.13403419  1.0
  F  F14  1  0.16895565  0.48566005  0.10574729  1.0
  F  F15  1  0.57727328  0.64995590  0.13403403  1.0
  F  F16  1  0.57365833  0.27492405  0.23476867  1.0
  F  F17  1  0.92634162  0.77492397  0.23476875  1.0
  F  F18  1  0.34460292  0.46391121  0.40383413  1.0
  F  F19  1  0.89791756  0.40061266  0.39350134  1.0
  F  F20  1  0.15539709  0.96391119  0.40383422  1.0
  F  F21  1  0.60208237  0.90061258  0.39350131  1.0
  F  F22  1  0.39791763  0.09938743  0.60649867  1.0
  F  F23  1  0.84460290  0.03608882  0.59616579  1.0
  F  F24  1  0.10208244  0.59938738  0.60649863  1.0
  F  F25  1  0.65539707  0.53608880  0.59616586  1.0
  F  F26  1  0.07365842  0.22507602  0.76523124  1.0
  F  F27  1  0.42634163  0.72507593  0.76523133  1.0
  F  F28  1  0.42272677  0.35004409  0.86596598  1.0
  F  F29  1  0.83104444  0.51433989  0.89425272  1.0
  F  F30  1  0.07727328  0.85004417  0.86596586  1.0
  F  F31  1  0.66895567  0.01433994  0.89425269  1.0
