# generated using pymatgen
data_LiHgPO4
_symmetry_space_group_name_H-M   'P 1'
_cell_length_a   5.31293311
_cell_length_b   8.63397785
_cell_length_c   9.28640352
_cell_angle_alpha   89.99999098
_cell_angle_beta   90.00000109
_cell_angle_gamma   89.99997960
_symmetry_Int_Tables_number   1
_chemical_formula_structural   LiHgPO4
_chemical_formula_sum   'Li4 Hg4 P4 O16'
_cell_volume   425.98355086
_cell_formula_units_Z   4
loop_
 _symmetry_equiv_pos_site_id
 _symmetry_equiv_pos_as_xyz
  1  'x, y, z'
loop_
 _atom_site_type_symbol
 _atom_site_label
 _atom_site_symmetry_multiplicity
 _atom_site_fract_x
 _atom_site_fract_y
 _atom_site_fract_z
 _atom_site_occupancy
  Li  Li0  1  0.89119607  0.05504997  0.60113440  1.0
  Li  Li1  1  0.39119629  0.44495003  0.10113449  1.0
  Li  Li2  1  0.89119614  0.55504995  0.89886595  1.0
  Li  Li3  1  0.39119612  0.94495007  0.39886605  1.0
  Hg  Hg4  1  0.02277288  0.16276727  0.04437573  1.0
  Hg  Hg5  1  0.52277305  0.33723273  0.54437572  1.0
  Hg  Hg6  1  0.02277264  0.66276724  0.45562411  1.0
  Hg  Hg7  1  0.52277335  0.83723270  0.95562420  1.0
  P  P8  1  0.56769706  0.24573527  0.86321581  1.0
  P  P9  1  0.06769558  0.25426519  0.36321529  1.0
  P  P10  1  0.56769955  0.74573570  0.63678410  1.0
  P  P11  1  0.06769334  0.75426572  0.13678467  1.0
  O  O12  1  0.66492508  0.10327376  0.95585570  1.0
  O  O13  1  0.14204568  0.10328466  0.44227157  1.0
  O  O14  1  0.28323454  0.23037451  0.84042742  1.0
  O  O15  1  0.72012881  0.22851715  0.71666521  1.0
  O  O16  1  0.22012887  0.27148288  0.21666527  1.0
  O  O17  1  0.78323533  0.26962550  0.34042741  1.0
  O  O18  1  0.64204576  0.39671491  0.94227143  1.0
  O  O19  1  0.16492499  0.39672631  0.45585581  1.0
  O  O20  1  0.66492467  0.60327387  0.54414409  1.0
  O  O21  1  0.14204645  0.60328427  0.05772834  1.0
  O  O22  1  0.28323245  0.73037418  0.65957269  1.0
  O  O23  1  0.72012830  0.72851694  0.78333443  1.0
  O  O24  1  0.22012933  0.77148302  0.28333497  1.0
  O  O25  1  0.78323727  0.76962523  0.15957218  1.0
  O  O26  1  0.64204510  0.89671461  0.55772893  1.0
  O  O27  1  0.16492530  0.89672633  0.04414402  1.0
