# generated using pymatgen
data_LiInGeO4
_symmetry_space_group_name_H-M   'P 1'
_cell_length_a   5.06232025
_cell_length_b   6.17178853
_cell_length_c   10.86133806
_cell_angle_alpha   89.99999921
_cell_angle_beta   89.99997598
_cell_angle_gamma   89.99999959
_symmetry_Int_Tables_number   1
_chemical_formula_structural   LiInGeO4
_chemical_formula_sum   'Li4 In4 Ge4 O16'
_cell_volume   339.34697656
_cell_formula_units_Z   4
loop_
 _symmetry_equiv_pos_site_id
 _symmetry_equiv_pos_as_xyz
  1  'x, y, z'
loop_
 _atom_site_type_symbol
 _atom_site_label
 _atom_site_symmetry_multiplicity
 _atom_site_fract_x
 _atom_site_fract_y
 _atom_site_fract_z
 _atom_site_occupancy
  Li  Li0  1  0.00000021  0.00000005  0.99999996  1.0
  Li  Li1  1  0.49999982  0.00000005  0.49999997  1.0
  Li  Li2  1  0.00000020  0.49999995  0.99999996  1.0
  Li  Li3  1  0.49999982  0.49999995  0.49999997  1.0
  In  In4  1  0.01342851  0.75000001  0.27248744  1.0
  In  In5  1  0.48657169  0.75000000  0.77248741  1.0
  In  In6  1  0.98657177  0.25000000  0.72751257  1.0
  In  In7  1  0.51342814  0.24999999  0.22751268  1.0
  Ge  Ge8  1  0.56310401  0.75000000  0.08669737  1.0
  Ge  Ge9  1  0.93689595  0.75000000  0.58669714  1.0
  Ge  Ge10  1  0.43689546  0.25000000  0.91330320  1.0
  Ge  Ge11  1  0.06310480  0.25000000  0.41330322  1.0
  O  O12  1  0.76623400  0.53169373  0.66502123  1.0
  O  O13  1  0.23376610  0.46830649  0.33497855  1.0
  O  O14  1  0.73376606  0.53169359  0.16502136  1.0
  O  O15  1  0.76623398  0.96830629  0.66502122  1.0
  O  O16  1  0.26623376  0.03169344  0.83497847  1.0
  O  O17  1  0.78185958  0.24999999  0.90599850  1.0
  O  O18  1  0.26623378  0.46830653  0.83497844  1.0
  O  O19  1  0.23376611  0.03169351  0.33497856  1.0
  O  O20  1  0.21814132  0.75000001  0.09400139  1.0
  O  O21  1  0.71814035  0.24999999  0.40599866  1.0
  O  O22  1  0.71219639  0.74999999  0.93950529  1.0
  O  O23  1  0.28185865  0.75000001  0.59400117  1.0
  O  O24  1  0.78780332  0.75000000  0.43950514  1.0
  O  O25  1  0.21219682  0.25000000  0.56049496  1.0
  O  O26  1  0.28780332  0.25000002  0.06049482  1.0
  O  O27  1  0.73376608  0.96830642  0.16502134  1.0
