# generated using pymatgen
data_LiMgPO4
_symmetry_space_group_name_H-M   'P 1'
_cell_length_a   5.14053120
_cell_length_b   8.10582986
_cell_length_c   9.03688198
_cell_angle_alpha   89.99993750
_cell_angle_beta   89.99988823
_cell_angle_gamma   89.99990144
_symmetry_Int_Tables_number   1
_chemical_formula_structural   LiMgPO4
_chemical_formula_sum   'Li4 Mg4 P4 O16'
_cell_volume   376.55125002
_cell_formula_units_Z   4
loop_
 _symmetry_equiv_pos_site_id
 _symmetry_equiv_pos_as_xyz
  1  'x, y, z'
loop_
 _atom_site_type_symbol
 _atom_site_label
 _atom_site_symmetry_multiplicity
 _atom_site_fract_x
 _atom_site_fract_y
 _atom_site_fract_z
 _atom_site_occupancy
  Li  Li0  1  0.86839616  0.07503923  0.57523743  1.0
  Li  Li1  1  0.36839599  0.42496199  0.07523698  1.0
  Li  Li2  1  0.86839637  0.57503701  0.92476391  1.0
  Li  Li3  1  0.36839484  0.92496337  0.42476243  1.0
  Mg  Mg4  1  0.01266409  0.16039661  0.02621825  1.0
  Mg  Mg5  1  0.51266316  0.33960150  0.52621730  1.0
  Mg  Mg6  1  0.01266285  0.66039362  0.47378021  1.0
  Mg  Mg7  1  0.51266190  0.83960616  0.97378413  1.0
  P  P8  1  0.57595537  0.22680088  0.86952911  1.0
  P  P9  1  0.07595947  0.27320306  0.36951607  1.0
  P  P10  1  0.57596212  0.72679663  0.63048117  1.0
  P  P11  1  0.07595573  0.77320078  0.13047079  1.0
  O  O12  1  0.67580522  0.06152401  0.94027406  1.0
  O  O13  1  0.23414498  0.14074750  0.45740343  1.0
  O  O14  1  0.28484515  0.25791667  0.89789732  1.0
  O  O15  1  0.64019374  0.22217351  0.70310426  1.0
  O  O16  1  0.14019299  0.27782582  0.20311090  1.0
  O  O17  1  0.78483701  0.24208239  0.39789908  1.0
  O  O18  1  0.73413984  0.35924727  0.95739973  1.0
  O  O19  1  0.17580680  0.43847866  0.44027643  1.0
  O  O20  1  0.67579720  0.56154771  0.55973343  1.0
  O  O21  1  0.23413528  0.64075624  0.04260156  1.0
  O  O22  1  0.28487803  0.75791508  0.60210680  1.0
  O  O23  1  0.64018558  0.72217271  0.79686445  1.0
  O  O24  1  0.14019329  0.77782621  0.29689179  1.0
  O  O25  1  0.78485259  0.74208371  0.10210374  1.0
  O  O26  1  0.73412037  0.85923151  0.54260792  1.0
  O  O27  1  0.17580388  0.93847016  0.05972730  1.0
