# generated using pymatgen
data_LiMgF3
_symmetry_space_group_name_H-M   'P 1'
_cell_length_a   6.32054043
_cell_length_b   6.32054049
_cell_length_c   5.81303060
_cell_angle_alpha   87.75425835
_cell_angle_beta   87.75425158
_cell_angle_gamma   84.71224881
_symmetry_Int_Tables_number   1
_chemical_formula_structural   LiMgF3
_chemical_formula_sum   'Li4 Mg4 F12'
_cell_volume   230.91251398
_cell_formula_units_Z   4
loop_
 _symmetry_equiv_pos_site_id
 _symmetry_equiv_pos_as_xyz
  1  'x, y, z'
loop_
 _atom_site_type_symbol
 _atom_site_label
 _atom_site_symmetry_multiplicity
 _atom_site_fract_x
 _atom_site_fract_y
 _atom_site_fract_z
 _atom_site_occupancy
  Li  Li0  1  0.66565518  0.66565512  0.86837731  1.0
  Li  Li1  1  0.68275866  0.31724134  0.49999990  1.0
  Li  Li2  1  0.31724135  0.68275859  0.50000008  1.0
  Li  Li3  1  0.33434494  0.33434491  0.13162268  1.0
  Mg  Mg4  1  0.76083133  0.76083126  0.28336571  1.0
  Mg  Mg5  1  0.81438667  0.18561329  0.00000000  1.0
  Mg  Mg6  1  0.18561334  0.81438671  0.99999997  1.0
  Mg  Mg7  1  0.23916870  0.23916873  0.71663437  1.0
  F  F8  1  0.86365512  0.86365516  0.94542555  1.0
  F  F9  1  0.63704973  0.63704989  0.56198312  1.0
  F  F10  1  0.92702752  0.27354334  0.68772834  1.0
  F  F11  1  0.27354329  0.92702758  0.68772845  1.0
  F  F12  1  0.47245368  0.77468461  0.12761628  1.0
  F  F13  1  0.77468480  0.47245360  0.12761626  1.0
  F  F14  1  0.52754630  0.22531538  0.87238381  1.0
  F  F15  1  0.22531516  0.52754644  0.87238372  1.0
  F  F16  1  0.07297247  0.72645667  0.31227165  1.0
  F  F17  1  0.72645675  0.07297242  0.31227151  1.0
  F  F18  1  0.36295012  0.36295008  0.43801694  1.0
  F  F19  1  0.13634489  0.13634487  0.05457434  1.0
