# generated using pymatgen
data_LiMg2F5
_symmetry_space_group_name_H-M   'P 1'
_cell_length_a   7.07595505
_cell_length_b   6.06167363
_cell_length_c   8.13526246
_cell_angle_alpha   87.10938579
_cell_angle_beta   89.99999634
_cell_angle_gamma   90.00004272
_symmetry_Int_Tables_number   1
_chemical_formula_structural   LiMg2F5
_chemical_formula_sum   'Li4 Mg8 F20'
_cell_volume   348.49475747
_cell_formula_units_Z   4
loop_
 _symmetry_equiv_pos_site_id
 _symmetry_equiv_pos_as_xyz
  1  'x, y, z'
loop_
 _atom_site_type_symbol
 _atom_site_label
 _atom_site_symmetry_multiplicity
 _atom_site_fract_x
 _atom_site_fract_y
 _atom_site_fract_z
 _atom_site_occupancy
  Li  Li0  1  0.10227172  0.93344921  0.15667541  1.0
  Li  Li1  1  0.39772821  0.43345025  0.15667546  1.0
  Li  Li2  1  0.60227163  0.56654987  0.84332356  1.0
  Li  Li3  1  0.89772846  0.06655111  0.84332373  1.0
  Mg  Mg4  1  0.64197841  0.94849217  0.14401992  1.0
  Mg  Mg5  1  0.85802173  0.44849240  0.14402006  1.0
  Mg  Mg6  1  0.65950449  0.21787849  0.49544503  1.0
  Mg  Mg7  1  0.15950509  0.28212067  0.50456140  1.0
  Mg  Mg8  1  0.84049536  0.71787839  0.49544544  1.0
  Mg  Mg9  1  0.34049515  0.78212065  0.50456185  1.0
  Mg  Mg10  1  0.14197847  0.55150807  0.85597683  1.0
  Mg  Mg11  1  0.35802135  0.05150823  0.85597695  1.0
  F  F12  1  0.36226654  0.99289155  0.10391269  1.0
  F  F13  1  0.89497171  0.12916110  0.09594873  1.0
  F  F14  1  0.13773351  0.49289241  0.10391238  1.0
  F  F15  1  0.60502872  0.62916138  0.09594822  1.0
  F  F16  1  0.60980509  0.25159298  0.25712405  1.0
  F  F17  1  0.89019497  0.75159305  0.25712456  1.0
  F  F18  1  0.33135003  0.49871900  0.39625082  1.0
  F  F19  1  0.91423451  0.36337668  0.39962729  1.0
  F  F20  1  0.16864991  0.99871869  0.39625079  1.0
  F  F21  1  0.58576550  0.86337727  0.39962744  1.0
  F  F22  1  0.41423613  0.13662328  0.60037056  1.0
  F  F23  1  0.83134879  0.00128092  0.60374672  1.0
  F  F24  1  0.08576397  0.63662389  0.60037073  1.0
  F  F25  1  0.66865116  0.50128061  0.60374665  1.0
  F  F26  1  0.10980538  0.24840725  0.74287376  1.0
  F  F27  1  0.39019462  0.74840739  0.74287419  1.0
  F  F28  1  0.39497186  0.37083887  0.90405306  1.0
  F  F29  1  0.86226565  0.50710708  0.89608962  1.0
  F  F30  1  0.10502765  0.87083903  0.90405268  1.0
  F  F31  1  0.63773423  0.00710805  0.89608942  1.0
