# generated using pymatgen
data_LiNbO3
_symmetry_space_group_name_H-M   'P 1'
_cell_length_a   6.86305854
_cell_length_b   6.86305848
_cell_length_c   6.04755469
_cell_angle_alpha   71.95869194
_cell_angle_beta   71.95869406
_cell_angle_gamma   70.63872269
_symmetry_Int_Tables_number   1
_chemical_formula_structural   LiNbO3
_chemical_formula_sum   'Li4 Nb4 O12'
_cell_volume   248.62914869
_cell_formula_units_Z   4
loop_
 _symmetry_equiv_pos_site_id
 _symmetry_equiv_pos_as_xyz
  1  'x, y, z'
loop_
 _atom_site_type_symbol
 _atom_site_label
 _atom_site_symmetry_multiplicity
 _atom_site_fract_x
 _atom_site_fract_y
 _atom_site_fract_z
 _atom_site_occupancy
  Li  Li0  1  0.07073914  0.92926086  0.74999999  1.0
  Li  Li1  1  0.92926086  0.07073914  0.25000001  1.0
  Li  Li2  1  0.69903968  0.30096031  0.75000001  1.0
  Li  Li3  1  0.30096032  0.69903969  0.24999999  1.0
  Nb  Nb4  1  0.15527158  0.36063032  0.79981021  1.0
  Nb  Nb5  1  0.36063029  0.15527159  0.29981021  1.0
  Nb  Nb6  1  0.84472841  0.63936968  0.20018979  1.0
  Nb  Nb7  1  0.63936971  0.84472841  0.70018979  1.0
  O  O8  1  0.70967396  0.60042266  0.54479242  1.0
  O  O9  1  0.29032604  0.39957734  0.45520758  1.0
  O  O10  1  0.60042265  0.70967396  0.04479243  1.0
  O  O11  1  0.04530031  0.78157707  0.13424214  1.0
  O  O12  1  0.95469969  0.21842293  0.86575786  1.0
  O  O13  1  0.78157706  0.04530032  0.63424214  1.0
  O  O14  1  0.99845920  0.64395590  0.78780171  1.0
  O  O15  1  0.21842294  0.95469968  0.36575787  1.0
  O  O16  1  0.64395590  0.99845922  0.28780170  1.0
  O  O17  1  0.35604410  0.00154078  0.71219830  1.0
  O  O18  1  0.00154080  0.35604410  0.21219829  1.0
  O  O19  1  0.39957735  0.29032604  0.95520757  1.0
