# generated using pymatgen
data_LiNiF3
_symmetry_space_group_name_H-M   'P 1'
_cell_length_a   6.38645208
_cell_length_b   6.38644924
_cell_length_c   5.72722369
_cell_angle_alpha   86.30312934
_cell_angle_beta   86.30304580
_cell_angle_gamma   84.07401263
_symmetry_Int_Tables_number   1
_chemical_formula_structural   LiNiF3
_chemical_formula_sum   'Li4 Ni4 F12'
_cell_volume   231.46930857
_cell_formula_units_Z   4
loop_
 _symmetry_equiv_pos_site_id
 _symmetry_equiv_pos_as_xyz
  1  'x, y, z'
loop_
 _atom_site_type_symbol
 _atom_site_label
 _atom_site_symmetry_multiplicity
 _atom_site_fract_x
 _atom_site_fract_y
 _atom_site_fract_z
 _atom_site_occupancy
  Li  Li0  1  0.66596627  0.66596637  0.86938463  1.0
  Li  Li1  1  0.67988594  0.32011277  0.50000010  1.0
  Li  Li2  1  0.32011406  0.67988726  0.49999989  1.0
  Li  Li3  1  0.33403381  0.33403363  0.13061533  1.0
  Ni  Ni4  1  0.75985486  0.75985433  0.27577893  1.0
  Ni  Ni5  1  0.81704992  0.18294823  0.99999952  1.0
  Ni  Ni6  1  0.18295007  0.81705177  0.00000049  1.0
  Ni  Ni7  1  0.24014512  0.24014567  0.72422104  1.0
  F  F8  1  0.86477825  0.86477606  0.93514891  1.0
  F  F9  1  0.63243032  0.63242661  0.56495860  1.0
  F  F10  1  0.93012649  0.27775650  0.67954188  1.0
  F  F11  1  0.27776499  0.93012650  0.67954451  1.0
  F  F12  1  0.47068909  0.77350853  0.12658531  1.0
  F  F13  1  0.77350863  0.47068778  0.12658339  1.0
  F  F14  1  0.52931089  0.22649147  0.87341470  1.0
  F  F15  1  0.22649135  0.52931219  0.87341664  1.0
  F  F16  1  0.06987350  0.72224351  0.32045814  1.0
  F  F17  1  0.72223497  0.06987349  0.32045549  1.0
  F  F18  1  0.36756971  0.36757340  0.43504140  1.0
  F  F19  1  0.13522176  0.13522393  0.06485109  1.0
