# generated using pymatgen
data_LiNiPO4
_symmetry_space_group_name_H-M   'P 1'
_cell_length_a   4.91836491
_cell_length_b   7.98424051
_cell_length_c   8.94223700
_cell_angle_alpha   89.99998606
_cell_angle_beta   89.99999039
_cell_angle_gamma   89.99999952
_symmetry_Int_Tables_number   1
_chemical_formula_structural   LiNiPO4
_chemical_formula_sum   'Li4 Ni4 P4 O16'
_cell_volume   351.15635638
_cell_formula_units_Z   4
loop_
 _symmetry_equiv_pos_site_id
 _symmetry_equiv_pos_as_xyz
  1  'x, y, z'
loop_
 _atom_site_type_symbol
 _atom_site_label
 _atom_site_symmetry_multiplicity
 _atom_site_fract_x
 _atom_site_fract_y
 _atom_site_fract_z
 _atom_site_occupancy
  Li  Li0  1  0.92148122  0.05474668  0.60545328  1.0
  Li  Li1  1  0.42148125  0.44525335  0.10545326  1.0
  Li  Li2  1  0.92148141  0.55474676  0.89454639  1.0
  Li  Li3  1  0.42148137  0.94525320  0.39454637  1.0
  Ni  Ni4  1  0.00080006  0.16478205  0.02543847  1.0
  Ni  Ni5  1  0.50080013  0.33521795  0.52543840  1.0
  Ni  Ni6  1  0.00080025  0.66478202  0.47456191  1.0
  Ni  Ni7  1  0.50080018  0.83521799  0.97456184  1.0
  P  P8  1  0.56458814  0.22167085  0.85693021  1.0
  P  P9  1  0.06458824  0.27832917  0.35693016  1.0
  P  P10  1  0.56458791  0.72167083  0.64306990  1.0
  P  P11  1  0.06458794  0.77832916  0.14306985  1.0
  O  O12  1  0.67302542  0.05591192  0.93046565  1.0
  O  O13  1  0.20624782  0.14002954  0.45535763  1.0
  O  O14  1  0.25428407  0.23983074  0.86185005  1.0
  O  O15  1  0.67157332  0.21915020  0.69417574  1.0
  O  O16  1  0.17157333  0.28084983  0.19417573  1.0
  O  O17  1  0.75428419  0.26016932  0.36185002  1.0
  O  O18  1  0.70624779  0.35997051  0.95535757  1.0
  O  O19  1  0.17302551  0.44408807  0.43046558  1.0
  O  O20  1  0.67302532  0.55591184  0.56953452  1.0
  O  O21  1  0.20624762  0.64002966  0.04464219  1.0
  O  O22  1  0.25428420  0.73983066  0.63815008  1.0
  O  O23  1  0.67157324  0.71915035  0.80582429  1.0
  O  O24  1  0.17157321  0.78084961  0.30582426  1.0
  O  O25  1  0.75428400  0.76016928  0.13815006  1.0
  O  O26  1  0.70624766  0.85997029  0.54464213  1.0
  O  O27  1  0.17302522  0.94408816  0.06953445  1.0
