# generated using pymatgen
data_LiNO3
_symmetry_space_group_name_H-M   'P 1'
_cell_length_a   5.03705231
_cell_length_b   3.20503574
_cell_length_c   6.99330778
_cell_angle_alpha   79.09073319
_cell_angle_beta   89.98868064
_cell_angle_gamma   89.99694520
_symmetry_Int_Tables_number   1
_chemical_formula_structural   LiNO3
_chemical_formula_sum   'Li2 N2 O6'
_cell_volume   110.85918136
_cell_formula_units_Z   2
loop_
 _symmetry_equiv_pos_site_id
 _symmetry_equiv_pos_as_xyz
  1  'x, y, z'
loop_
 _atom_site_type_symbol
 _atom_site_label
 _atom_site_symmetry_multiplicity
 _atom_site_fract_x
 _atom_site_fract_y
 _atom_site_fract_z
 _atom_site_occupancy
  Li  Li0  1  0.25004070  0.15168168  0.26142937  1.0
  Li  Li1  1  0.74996049  0.84831742  0.73857057  1.0
  N  N2  1  0.24994026  0.25623750  0.71536730  1.0
  N  N3  1  0.75005810  0.74375765  0.28462381  1.0
  O  O4  1  0.96866586  0.69579710  0.19939815  1.0
  O  O5  1  0.53153109  0.69585465  0.19937670  1.0
  O  O6  1  0.75000506  0.85139563  0.44706829  1.0
  O  O7  1  0.24999156  0.14861021  0.55293872  1.0
  O  O8  1  0.03133439  0.30420587  0.80060382  1.0
  O  O9  1  0.46847251  0.30414230  0.80062327  1.0
