# generated using pymatgen
data_LiNO3
_symmetry_space_group_name_H-M   'P 1'
_cell_length_a   4.07287399
_cell_length_b   4.07298560
_cell_length_c   4.07295901
_cell_angle_alpha   78.18386069
_cell_angle_beta   78.18414889
_cell_angle_gamma   78.18447717
_symmetry_Int_Tables_number   1
_chemical_formula_structural   LiNO3
_chemical_formula_sum   'Li1 N1 O3'
_cell_volume   63.79052101
_cell_formula_units_Z   1
loop_
 _symmetry_equiv_pos_site_id
 _symmetry_equiv_pos_as_xyz
  1  'x, y, z'
loop_
 _atom_site_type_symbol
 _atom_site_label
 _atom_site_symmetry_multiplicity
 _atom_site_fract_x
 _atom_site_fract_y
 _atom_site_fract_z
 _atom_site_occupancy
  Li  Li0  1  0.90286783  0.90285707  0.90285934  1.0
  N  N1  1  0.45999524  0.46003561  0.46001057  1.0
  O  O2  1  0.59883126  0.17345283  0.59883739  1.0
  O  O3  1  0.59883137  0.59882859  0.17346453  1.0
  O  O4  1  0.17347230  0.59882391  0.59882617  1.0
