# generated using pymatgen
data_LiNO3
_symmetry_space_group_name_H-M   'P 1'
_cell_length_a   7.49964905
_cell_length_b   4.75506555
_cell_length_c   4.75503852
_cell_angle_alpha   60.00283489
_cell_angle_beta   50.65173653
_cell_angle_gamma   50.65160639
_symmetry_Int_Tables_number   1
_chemical_formula_structural   LiNO3
_chemical_formula_sum   'Li2 N2 O6'
_cell_volume   100.03394530
_cell_formula_units_Z   2
loop_
 _symmetry_equiv_pos_site_id
 _symmetry_equiv_pos_as_xyz
  1  'x, y, z'
loop_
 _atom_site_type_symbol
 _atom_site_label
 _atom_site_symmetry_multiplicity
 _atom_site_fract_x
 _atom_site_fract_y
 _atom_site_fract_z
 _atom_site_occupancy
  Li  Li0  1  0.24999999  0.50000013  0.49999999  1.0
  Li  Li1  1  0.74999999  0.50000001  0.50000013  1.0
  N  N2  1  0.99999999  0.00002095  0.99997499  1.0
  N  N3  1  0.50000001  0.99997439  0.00002344  1.0
  O  O4  1  0.00000119  0.26643180  0.00000202  1.0
  O  O5  1  0.99999879  0.99999862  0.73357009  1.0
  O  O6  1  0.50000121  0.00000176  0.26643186  1.0
  O  O7  1  0.49999880  0.73357120  0.99999809  1.0
  O  O8  1  0.49999998  0.26643959  0.73356010  1.0
  O  O9  1  0.00000004  0.73356154  0.26643929  1.0
