# generated using pymatgen
data_LiScSiO4
_symmetry_space_group_name_H-M   'P 1'
_cell_length_a   5.14538307
_cell_length_b   6.90705145
_cell_length_c   10.64100289
_cell_angle_alpha   89.99999855
_cell_angle_beta   89.99999934
_cell_angle_gamma   90.00000019
_symmetry_Int_Tables_number   1
_chemical_formula_structural   LiScSiO4
_chemical_formula_sum   'Li4 Sc4 Si4 O16'
_cell_volume   378.17513046
_cell_formula_units_Z   4
loop_
 _symmetry_equiv_pos_site_id
 _symmetry_equiv_pos_as_xyz
  1  'x, y, z'
loop_
 _atom_site_type_symbol
 _atom_site_label
 _atom_site_symmetry_multiplicity
 _atom_site_fract_x
 _atom_site_fract_y
 _atom_site_fract_z
 _atom_site_occupancy
  Li  Li0  1  0.24650134  0.00107391  0.14790313  1.0
  Li  Li1  1  0.74650132  0.50107393  0.35209693  1.0
  Li  Li2  1  0.24650131  0.49892609  0.64790325  1.0
  Li  Li3  1  0.74650136  0.99892607  0.85209703  1.0
  Sc  Sc4  1  0.24476388  0.50282685  0.16699399  1.0
  Sc  Sc5  1  0.74476390  0.00282683  0.33300597  1.0
  Sc  Sc6  1  0.24476390  0.99717318  0.66699398  1.0
  Sc  Sc7  1  0.74476391  0.49717315  0.83300597  1.0
  Si  Si8  1  0.74937272  0.25455615  0.09297374  1.0
  Si  Si9  1  0.24937271  0.75455612  0.40702626  1.0
  Si  Si10  1  0.74937270  0.24544384  0.59297364  1.0
  Si  Si11  1  0.24937271  0.74544385  0.90702633  1.0
  O  O12  1  0.19141913  0.73846726  0.05849744  1.0
  O  O13  1  0.06500613  0.25628140  0.12133866  1.0
  O  O14  1  0.62361288  0.06058418  0.15901805  1.0
  O  O15  1  0.62517690  0.44573270  0.16546664  1.0
  O  O16  1  0.12517693  0.94573269  0.33453335  1.0
  O  O17  1  0.12361285  0.56058418  0.34098192  1.0
  O  O18  1  0.56500611  0.75628139  0.37866131  1.0
  O  O19  1  0.69141917  0.23846724  0.44150252  1.0
  O  O20  1  0.19141912  0.76153275  0.55849751  1.0
  O  O21  1  0.06500614  0.24371863  0.62133870  1.0
  O  O22  1  0.62361283  0.43941586  0.65901806  1.0
  O  O23  1  0.62517690  0.05426728  0.66546663  1.0
  O  O24  1  0.12517692  0.55426728  0.83453332  1.0
  O  O25  1  0.12361287  0.93941584  0.84098188  1.0
  O  O26  1  0.56500620  0.74371858  0.87866133  1.0
  O  O27  1  0.69141915  0.26153276  0.94150248  1.0
