# generated using pymatgen
data_LiScSiO4
_symmetry_space_group_name_H-M   'P 1'
_cell_length_a   4.85388269
_cell_length_b   6.02553566
_cell_length_c   10.53319765
_cell_angle_alpha   89.99999904
_cell_angle_beta   89.99998805
_cell_angle_gamma   90.00000524
_symmetry_Int_Tables_number   1
_chemical_formula_structural   LiScSiO4
_chemical_formula_sum   'Li4 Sc4 Si4 O16'
_cell_volume   308.06699374
_cell_formula_units_Z   4
loop_
 _symmetry_equiv_pos_site_id
 _symmetry_equiv_pos_as_xyz
  1  'x, y, z'
loop_
 _atom_site_type_symbol
 _atom_site_label
 _atom_site_symmetry_multiplicity
 _atom_site_fract_x
 _atom_site_fract_y
 _atom_site_fract_z
 _atom_site_occupancy
  Li  Li0  1  0.99999995  0.99999998  0.99999998  1.0
  Li  Li1  1  0.50000000  0.00000004  0.50000001  1.0
  Li  Li2  1  0.00000001  0.50000004  0.00000000  1.0
  Li  Li3  1  0.50000005  0.50000000  0.49999998  1.0
  Sc  Sc4  1  0.00621742  0.74999991  0.27473755  1.0
  Sc  Sc5  1  0.49378253  0.75000003  0.77473756  1.0
  Sc  Sc6  1  0.99378248  0.25000010  0.72526249  1.0
  Sc  Sc7  1  0.50621750  0.25000000  0.22526230  1.0
  Si  Si8  1  0.56695001  0.74999990  0.09148691  1.0
  Si  Si9  1  0.93305005  0.75000007  0.59148687  1.0
  Si  Si10  1  0.43304998  0.25000010  0.90851310  1.0
  Si  Si11  1  0.06694995  0.24999991  0.40851307  1.0
  O  O12  1  0.78337755  0.53930571  0.66868971  1.0
  O  O13  1  0.21662242  0.46069432  0.33131038  1.0
  O  O14  1  0.71662246  0.53930546  0.16868963  1.0
  O  O15  1  0.78337770  0.96069450  0.66868964  1.0
  O  O16  1  0.28337754  0.03930570  0.83131036  1.0
  O  O17  1  0.76646106  0.25000001  0.89911254  1.0
  O  O18  1  0.28337754  0.46069457  0.83131040  1.0
  O  O19  1  0.21662222  0.03930549  0.33131038  1.0
  O  O20  1  0.23353904  0.74999997  0.10088750  1.0
  O  O21  1  0.73353872  0.24999989  0.39911253  1.0
  O  O22  1  0.69642610  0.74999988  0.94813793  1.0
  O  O23  1  0.26646130  0.75000008  0.60088751  1.0
  O  O24  1  0.80357419  0.74999994  0.44813800  1.0
  O  O25  1  0.19642585  0.25000005  0.55186198  1.0
  O  O26  1  0.30357394  0.25000010  0.05186202  1.0
  O  O27  1  0.71662247  0.96069425  0.16868968  1.0
