# generated using pymatgen
data_LiScSiO4
_symmetry_space_group_name_H-M   'P 1'
_cell_length_a   5.67344649
_cell_length_b   5.67344931
_cell_length_c   8.92179923
_cell_angle_alpha   89.83833557
_cell_angle_beta   89.83841586
_cell_angle_gamma   124.76255437
_symmetry_Int_Tables_number   1
_chemical_formula_structural   LiScSiO4
_chemical_formula_sum   'Li2 Sc2 Si2 O8'
_cell_volume   235.91619675
_cell_formula_units_Z   2
loop_
 _symmetry_equiv_pos_site_id
 _symmetry_equiv_pos_as_xyz
  1  'x, y, z'
loop_
 _atom_site_type_symbol
 _atom_site_label
 _atom_site_symmetry_multiplicity
 _atom_site_fract_x
 _atom_site_fract_y
 _atom_site_fract_z
 _atom_site_occupancy
  Li  Li0  1  0.83170207  0.23622594  0.49260460  1.0
  Li  Li1  1  0.23622554  0.83170188  0.99260471  1.0
  Sc  Sc2  1  0.68709935  0.37025960  0.18106483  1.0
  Sc  Sc3  1  0.37025966  0.68709928  0.68106475  1.0
  Si  Si4  1  0.70913818  0.35653778  0.80647445  1.0
  Si  Si5  1  0.35653797  0.70913834  0.30647441  1.0
  O  O6  1  0.55225090  0.50212476  0.74303540  1.0
  O  O7  1  0.57619340  0.20727801  0.97264710  1.0
  O  O8  1  0.66542660  0.11219013  0.68655309  1.0
  O  O9  1  0.60267668  0.05792193  0.32354494  1.0
  O  O10  1  0.50212454  0.55225095  0.24303600  1.0
  O  O11  1  0.20727790  0.57619401  0.47264720  1.0
  O  O12  1  0.11219035  0.66542658  0.18655294  1.0
  O  O13  1  0.05792188  0.60267582  0.82354557  1.0
