# generated using pymatgen
data_LiScSe2
_symmetry_space_group_name_H-M   'P 1'
_cell_length_a   6.68026100
_cell_length_b   7.40237892
_cell_length_c   8.65182913
_cell_angle_alpha   89.99999501
_cell_angle_beta   90.00000576
_cell_angle_gamma   90.00000106
_symmetry_Int_Tables_number   1
_chemical_formula_structural   LiScSe2
_chemical_formula_sum   'Li4 Sc4 Se8'
_cell_volume   427.83142089
_cell_formula_units_Z   4
loop_
 _symmetry_equiv_pos_site_id
 _symmetry_equiv_pos_as_xyz
  1  'x, y, z'
loop_
 _atom_site_type_symbol
 _atom_site_label
 _atom_site_symmetry_multiplicity
 _atom_site_fract_x
 _atom_site_fract_y
 _atom_site_fract_z
 _atom_site_occupancy
  Li  Li0  1  0.00546786  0.58737583  0.87803242  1.0
  Li  Li1  1  0.50546770  0.41262422  0.12196749  1.0
  Li  Li2  1  0.50546775  0.91262422  0.37803262  1.0
  Li  Li3  1  0.00546790  0.08737582  0.62196729  1.0
  Sc  Sc4  1  0.00672275  0.58001507  0.37405862  1.0
  Sc  Sc5  1  0.50672278  0.41998489  0.62594141  1.0
  Sc  Sc6  1  0.50672275  0.91998490  0.87405865  1.0
  Sc  Sc7  1  0.00672275  0.08001510  0.12594137  1.0
  Se  Se8  1  0.11765511  0.91378921  0.37369554  1.0
  Se  Se9  1  0.61765511  0.08621074  0.62630451  1.0
  Se  Se10  1  0.61765508  0.58621074  0.87369556  1.0
  Se  Se11  1  0.11765505  0.41378926  0.12630447  1.0
  Se  Se12  1  0.61995435  0.57580798  0.37452732  1.0
  Se  Se13  1  0.11995437  0.42419199  0.62547271  1.0
  Se  Se14  1  0.11995433  0.92419207  0.87452729  1.0
  Se  Se15  1  0.61995436  0.07580796  0.12547274  1.0
