# generated using pymatgen
data_LiSiBiSe4
_symmetry_space_group_name_H-M   'P 1'
_cell_length_a   6.75329783
_cell_length_b   8.75950572
_cell_length_c   12.47266656
_cell_angle_alpha   90.00003126
_cell_angle_beta   90.00101464
_cell_angle_gamma   89.99995836
_symmetry_Int_Tables_number   1
_chemical_formula_structural   LiSiBiSe4
_chemical_formula_sum   'Li4 Si4 Bi4 Se16'
_cell_volume   737.82746232
_cell_formula_units_Z   4
loop_
 _symmetry_equiv_pos_site_id
 _symmetry_equiv_pos_as_xyz
  1  'x, y, z'
loop_
 _atom_site_type_symbol
 _atom_site_label
 _atom_site_symmetry_multiplicity
 _atom_site_fract_x
 _atom_site_fract_y
 _atom_site_fract_z
 _atom_site_occupancy
  Li  Li0  1  0.99999948  0.00000039  0.99999987  1.0
  Li  Li1  1  0.99999927  0.49999954  0.99999982  1.0
  Li  Li2  1  0.50000100  0.49999984  0.49999974  1.0
  Li  Li3  1  0.50000081  0.00000012  0.49999976  1.0
  Si  Si4  1  0.96034249  0.74999988  0.70073981  1.0
  Si  Si5  1  0.53966344  0.75000022  0.20076520  1.0
  Si  Si6  1  0.46033422  0.24999972  0.79923580  1.0
  Si  Si7  1  0.03965537  0.25000009  0.29925936  1.0
  Bi  Bi8  1  0.00473458  0.25000076  0.72378683  1.0
  Bi  Bi9  1  0.49527308  0.24999936  0.22382493  1.0
  Bi  Bi10  1  0.50472687  0.75000090  0.77617493  1.0
  Bi  Bi11  1  0.99526542  0.74999948  0.27621337  1.0
  Se  Se12  1  0.07423843  0.24999999  0.11637537  1.0
  Se  Se13  1  0.74412764  0.25000021  0.89920636  1.0
  Se  Se14  1  0.73782931  0.95438296  0.15379770  1.0
  Se  Se15  1  0.73782968  0.54561727  0.15379749  1.0
  Se  Se16  1  0.76219734  0.95438284  0.65379226  1.0
  Se  Se17  1  0.76219816  0.54561672  0.65379191  1.0
  Se  Se18  1  0.75586655  0.25000007  0.39924598  1.0
  Se  Se19  1  0.42576278  0.25000002  0.61636754  1.0
  Se  Se20  1  0.57423670  0.74999998  0.38363180  1.0
  Se  Se21  1  0.24413410  0.74999991  0.60075404  1.0
  Se  Se22  1  0.26217111  0.45438147  0.84620227  1.0
  Se  Se23  1  0.26217160  0.04561820  0.84620202  1.0
  Se  Se24  1  0.23780355  0.04561587  0.34620819  1.0
  Se  Se25  1  0.23780285  0.45438439  0.34620856  1.0
  Se  Se26  1  0.92576112  0.75000003  0.88362545  1.0
  Se  Se27  1  0.25587305  0.74999977  0.10079367  1.0
