# generated using pymatgen
data_LiSiBi3S7
_symmetry_space_group_name_H-M   'P 1'
_cell_length_a   10.06247524
_cell_length_b   10.06247707
_cell_length_c   6.11324261
_cell_angle_alpha   89.99999938
_cell_angle_beta   90.00000064
_cell_angle_gamma   120.00009167
_symmetry_Int_Tables_number   1
_chemical_formula_structural   LiSiBi3S7
_chemical_formula_sum   'Li2 Si2 Bi6 S14'
_cell_volume   536.05776402
_cell_formula_units_Z   2
loop_
 _symmetry_equiv_pos_site_id
 _symmetry_equiv_pos_as_xyz
  1  'x, y, z'
loop_
 _atom_site_type_symbol
 _atom_site_label
 _atom_site_symmetry_multiplicity
 _atom_site_fract_x
 _atom_site_fract_y
 _atom_site_fract_z
 _atom_site_occupancy
  Li  Li0  1  0.99999960  0.99999948  0.02510778  1.0
  Li  Li1  1  0.00000037  0.00000049  0.52510781  1.0
  Si  Si2  1  0.33333333  0.66666667  0.17179999  1.0
  Si  Si3  1  0.66666667  0.33333333  0.67179996  1.0
  Bi  Bi4  1  0.11223572  0.75513105  0.72415817  1.0
  Bi  Bi5  1  0.24486902  0.35710546  0.72415862  1.0
  Bi  Bi6  1  0.64289422  0.88776355  0.72415773  1.0
  Bi  Bi7  1  0.35710575  0.11223641  0.22415785  1.0
  Bi  Bi8  1  0.75513086  0.64289446  0.22415859  1.0
  Bi  Bi9  1  0.88776430  0.24486903  0.22415813  1.0
  S  S10  1  0.08866248  0.84556119  0.31718566  1.0
  S  S11  1  0.11139350  0.52326910  0.02538325  1.0
  S  S12  1  0.41187576  0.88860675  0.02538353  1.0
  S  S13  1  0.33333333  0.66666667  0.52071112  1.0
  S  S14  1  0.15443966  0.24310268  0.31718548  1.0
  S  S15  1  0.47673121  0.58812491  0.02538335  1.0
  S  S16  1  0.24310166  0.08866269  0.81718542  1.0
  S  S17  1  0.75689833  0.91133729  0.31718535  1.0
  S  S18  1  0.52326879  0.41187507  0.52538338  1.0
  S  S19  1  0.84556033  0.75689730  0.81718545  1.0
  S  S20  1  0.66666667  0.33333333  0.02071109  1.0
  S  S21  1  0.58812430  0.11139328  0.52538346  1.0
  S  S22  1  0.88860654  0.47673095  0.52538322  1.0
  S  S23  1  0.91133754  0.15443883  0.81718562  1.0
