# generated using pymatgen
data_LiSiBiS4
_symmetry_space_group_name_H-M   'P 1'
_cell_length_a   6.69915177
_cell_length_b   8.81976324
_cell_length_c   11.28240814
_cell_angle_alpha   89.99999852
_cell_angle_beta   90.00000212
_cell_angle_gamma   89.99998056
_symmetry_Int_Tables_number   1
_chemical_formula_structural   LiSiBiS4
_chemical_formula_sum   'Li4 Si4 Bi4 S16'
_cell_volume   666.62032362
_cell_formula_units_Z   4
loop_
 _symmetry_equiv_pos_site_id
 _symmetry_equiv_pos_as_xyz
  1  'x, y, z'
loop_
 _atom_site_type_symbol
 _atom_site_label
 _atom_site_symmetry_multiplicity
 _atom_site_fract_x
 _atom_site_fract_y
 _atom_site_fract_z
 _atom_site_occupancy
  Li  Li0  1  0.99999984  0.00000004  0.99999996  1.0
  Li  Li1  1  0.99999985  0.49999996  0.99999998  1.0
  Li  Li2  1  0.50000029  0.49999994  0.49999993  1.0
  Li  Li3  1  0.50000005  0.00000004  0.50000000  1.0
  Si  Si4  1  0.88227601  0.74999939  0.70865201  1.0
  Si  Si5  1  0.61772401  0.75000068  0.20865201  1.0
  Si  Si6  1  0.38227593  0.24999937  0.79134793  1.0
  Si  Si7  1  0.11772402  0.25000066  0.29134792  1.0
  Bi  Bi8  1  0.84992279  0.25000491  0.70415189  1.0
  Bi  Bi9  1  0.65007719  0.24999484  0.20415190  1.0
  Bi  Bi10  1  0.34992278  0.75000485  0.79584805  1.0
  Bi  Bi11  1  0.15007724  0.74999482  0.29584810  1.0
  S  S12  1  0.02723934  0.25000039  0.10861388  1.0
  S  S13  1  0.64775504  0.25000045  0.90045017  1.0
  S  S14  1  0.80464944  0.93949757  0.17880024  1.0
  S  S15  1  0.80465294  0.56050610  0.17880137  1.0
  S  S16  1  0.69534719  0.93949402  0.67880136  1.0
  S  S17  1  0.69535044  0.56050258  0.67880030  1.0
  S  S18  1  0.85224494  0.24999958  0.40045016  1.0
  S  S19  1  0.47276065  0.24999965  0.60861388  1.0
  S  S20  1  0.52723936  0.75000039  0.39138620  1.0
  S  S21  1  0.14775498  0.75000046  0.59954987  1.0
  S  S22  1  0.19534715  0.43949398  0.82119868  1.0
  S  S23  1  0.19535050  0.06050255  0.82119974  1.0
  S  S24  1  0.30465287  0.06050609  0.32119867  1.0
  S  S25  1  0.30464947  0.43949752  0.32119973  1.0
  S  S26  1  0.97276066  0.74999964  0.89138619  1.0
  S  S27  1  0.35224503  0.74999953  0.09954986  1.0
