# generated using pymatgen
data_LiTiBi3O7
_symmetry_space_group_name_H-M   'P 1'
_cell_length_a   8.64846649
_cell_length_b   8.64846697
_cell_length_c   5.41336388
_cell_angle_alpha   90.00000014
_cell_angle_beta   90.00000041
_cell_angle_gamma   120.00015322
_symmetry_Int_Tables_number   1
_chemical_formula_structural   LiTiBi3O7
_chemical_formula_sum   'Li2 Ti2 Bi6 O14'
_cell_volume   350.65127318
_cell_formula_units_Z   2
loop_
 _symmetry_equiv_pos_site_id
 _symmetry_equiv_pos_as_xyz
  1  'x, y, z'
loop_
 _atom_site_type_symbol
 _atom_site_label
 _atom_site_symmetry_multiplicity
 _atom_site_fract_x
 _atom_site_fract_y
 _atom_site_fract_z
 _atom_site_occupancy
  Li  Li0  1  0.99999974  0.99999995  0.00593884  1.0
  Li  Li1  1  0.00000025  0.00000005  0.50593884  1.0
  Ti  Ti2  1  0.33333333  0.66666667  0.17119344  1.0
  Ti  Ti3  1  0.66666667  0.33333333  0.67119343  1.0
  Bi  Bi4  1  0.09863763  0.74047092  0.69902427  1.0
  Bi  Bi5  1  0.25952962  0.35816730  0.69902414  1.0
  Bi  Bi6  1  0.64183250  0.90136218  0.69902372  1.0
  Bi  Bi7  1  0.35816750  0.09863785  0.19902376  1.0
  Bi  Bi8  1  0.74047037  0.64183268  0.19902416  1.0
  Bi  Bi9  1  0.90136235  0.25952909  0.19902426  1.0
  O  O10  1  0.09688708  0.86660560  0.34383582  1.0
  O  O11  1  0.11239891  0.51625877  0.03492629  1.0
  O  O12  1  0.40386054  0.88760156  0.03492648  1.0
  O  O13  1  0.33333333  0.66666667  0.50731042  1.0
  O  O14  1  0.13339390  0.23028157  0.34383564  1.0
  O  O15  1  0.48374117  0.59613994  0.03492565  1.0
  O  O16  1  0.23028207  0.09688755  0.84383526  1.0
  O  O17  1  0.76971791  0.90311241  0.34383528  1.0
  O  O18  1  0.51625883  0.40386007  0.53492570  1.0
  O  O19  1  0.86660609  0.76971841  0.84383563  1.0
  O  O20  1  0.66666667  0.33333333  0.00731047  1.0
  O  O21  1  0.59613947  0.11239844  0.53492643  1.0
  O  O22  1  0.88760113  0.48374128  0.53492630  1.0
  O  O23  1  0.90311291  0.13339439  0.84383577  1.0
