# generated using pymatgen
data_LiVO3
_symmetry_space_group_name_H-M   'P 1'
_cell_length_a   3.47547668
_cell_length_b   4.91639525
_cell_length_c   14.18023282
_cell_angle_alpha   90.00001334
_cell_angle_beta   90.00000004
_cell_angle_gamma   89.99999988
_symmetry_Int_Tables_number   1
_chemical_formula_structural   LiVO3
_chemical_formula_sum   'Li4 V4 O12'
_cell_volume   242.29504379
_cell_formula_units_Z   4
loop_
 _symmetry_equiv_pos_site_id
 _symmetry_equiv_pos_as_xyz
  1  'x, y, z'
loop_
 _atom_site_type_symbol
 _atom_site_label
 _atom_site_symmetry_multiplicity
 _atom_site_fract_x
 _atom_site_fract_y
 _atom_site_fract_z
 _atom_site_occupancy
  Li  Li0  1  0.25000000  0.87746822  0.31956173  1.0
  Li  Li1  1  0.75000000  0.12252657  0.68043523  1.0
  Li  Li2  1  0.74999999  0.37746479  0.18043613  1.0
  Li  Li3  1  0.25000000  0.62252306  0.81956326  1.0
  V  V4  1  0.75000000  0.07085722  0.90691116  1.0
  V  V5  1  0.25000000  0.92914321  0.09310592  1.0
  V  V6  1  0.25000000  0.57086172  0.59311913  1.0
  V  V7  1  0.75000000  0.42914354  0.40692233  1.0
  O  O8  1  0.25000000  0.41559123  0.70046677  1.0
  O  O9  1  0.75000000  0.09621903  0.38685698  1.0
  O  O10  1  0.25000000  0.54298940  0.44270020  1.0
  O  O11  1  0.75000000  0.45702008  0.55729839  1.0
  O  O12  1  0.75000000  0.40378068  0.88685291  1.0
  O  O13  1  0.75000000  0.04298462  0.05729666  1.0
  O  O14  1  0.75000000  0.58444687  0.29950582  1.0
  O  O15  1  0.75000000  0.91555650  0.79950904  1.0
  O  O16  1  0.25000000  0.90375496  0.61314427  1.0
  O  O17  1  0.25000000  0.59623519  0.11314135  1.0
  O  O18  1  0.25000000  0.08441916  0.20047241  1.0
  O  O19  1  0.25000000  0.95701395  0.94270031  1.0
