# generated using pymatgen
data_LiVO3
_symmetry_space_group_name_H-M   'P 1'
_cell_length_a   4.97069365
_cell_length_b   5.86734153
_cell_length_c   8.11745333
_cell_angle_alpha   89.99999860
_cell_angle_beta   90.00060677
_cell_angle_gamma   89.99999944
_symmetry_Int_Tables_number   1
_chemical_formula_structural   LiVO3
_chemical_formula_sum   'Li4 V4 O12'
_cell_volume   236.74355613
_cell_formula_units_Z   4
loop_
 _symmetry_equiv_pos_site_id
 _symmetry_equiv_pos_as_xyz
  1  'x, y, z'
loop_
 _atom_site_type_symbol
 _atom_site_label
 _atom_site_symmetry_multiplicity
 _atom_site_fract_x
 _atom_site_fract_y
 _atom_site_fract_z
 _atom_site_occupancy
  Li  Li0  1  0.03291489  0.74999995  0.88384443  1.0
  Li  Li1  1  0.03290715  0.25000006  0.61615840  1.0
  Li  Li2  1  0.96709277  0.25000001  0.11616341  1.0
  Li  Li3  1  0.96709487  0.74999995  0.38383863  1.0
  V  V4  1  0.46967809  0.74999995  0.64740701  1.0
  V  V5  1  0.46968445  0.25000005  0.85257944  1.0
  V  V6  1  0.53029927  0.25000005  0.35257547  1.0
  V  V7  1  0.53029184  0.74999996  0.14743263  1.0
  O  O8  1  0.68505922  0.50000461  0.24999797  1.0
  O  O9  1  0.31494005  0.00000401  0.75000290  1.0
  O  O10  1  0.31494006  0.49999600  0.75000289  1.0
  O  O11  1  0.68505923  0.99999540  0.24999796  1.0
  O  O12  1  0.33507036  0.75000000  0.45826464  1.0
  O  O13  1  0.33507612  0.25000001  0.04173493  1.0
  O  O14  1  0.66493693  0.25000001  0.54174960  1.0
  O  O15  1  0.66493413  0.74999999  0.95825407  1.0
  O  O16  1  0.19501359  0.75000000  0.12068782  1.0
  O  O17  1  0.19500071  0.25000001  0.37931280  1.0
  O  O18  1  0.80500109  0.25000000  0.87930846  1.0
  O  O19  1  0.80500517  0.74999998  0.62068653  1.0
