# generated using pymatgen
data_LiVSiO4
_symmetry_space_group_name_H-M   'P 1'
_cell_length_a   5.08058917
_cell_length_b   6.83676325
_cell_length_c   10.48029286
_cell_angle_alpha   90.00000409
_cell_angle_beta   89.99999750
_cell_angle_gamma   90.00000028
_symmetry_Int_Tables_number   1
_chemical_formula_structural   LiVSiO4
_chemical_formula_sum   'Li4 V4 Si4 O16'
_cell_volume   364.03072264
_cell_formula_units_Z   4
loop_
 _symmetry_equiv_pos_site_id
 _symmetry_equiv_pos_as_xyz
  1  'x, y, z'
loop_
 _atom_site_type_symbol
 _atom_site_label
 _atom_site_symmetry_multiplicity
 _atom_site_fract_x
 _atom_site_fract_y
 _atom_site_fract_z
 _atom_site_occupancy
  Li  Li0  1  0.24521213  0.00617613  0.14982452  1.0
  Li  Li1  1  0.74521213  0.50617611  0.35017595  1.0
  Li  Li2  1  0.24521214  0.49382389  0.64982417  1.0
  Li  Li3  1  0.74521215  0.99382387  0.85017560  1.0
  V  V4  1  0.24621743  0.50991099  0.16757441  1.0
  V  V5  1  0.74621747  0.00991097  0.33242553  1.0
  V  V6  1  0.24621746  0.99008902  0.66757441  1.0
  V  V7  1  0.74621745  0.49008902  0.83242553  1.0
  Si  Si8  1  0.74953875  0.26081203  0.09403735  1.0
  Si  Si9  1  0.24953880  0.76081199  0.40596267  1.0
  Si  Si10  1  0.74953880  0.23918798  0.59403732  1.0
  Si  Si11  1  0.24953876  0.73918800  0.90596264  1.0
  O  O12  1  0.18884856  0.73709541  0.06007453  1.0
  O  O13  1  0.06869723  0.26720187  0.12274122  1.0
  O  O14  1  0.62823767  0.06085579  0.15909830  1.0
  O  O15  1  0.61910103  0.45106799  0.16767596  1.0
  O  O16  1  0.11910110  0.95106800  0.33232413  1.0
  O  O17  1  0.12823775  0.56085577  0.34090173  1.0
  O  O18  1  0.56869729  0.76720190  0.37725879  1.0
  O  O19  1  0.68884863  0.23709539  0.43992543  1.0
  O  O20  1  0.18884860  0.76290457  0.56007456  1.0
  O  O21  1  0.06869727  0.23279812  0.62274121  1.0
  O  O22  1  0.62823772  0.43914423  0.65909824  1.0
  O  O23  1  0.61910108  0.04893198  0.66767587  1.0
  O  O24  1  0.11910104  0.54893202  0.83232404  1.0
  O  O25  1  0.12823771  0.93914421  0.84090167  1.0
  O  O26  1  0.56869726  0.73279811  0.87725878  1.0
  O  O27  1  0.68884859  0.26290464  0.93992546  1.0
