# generated using pymatgen
data_LiZn2F5
_symmetry_space_group_name_H-M   'P 1'
_cell_length_a   6.97354415
_cell_length_b   6.30684333
_cell_length_c   8.63541113
_cell_angle_alpha   83.93497356
_cell_angle_beta   90.00001870
_cell_angle_gamma   89.99997735
_symmetry_Int_Tables_number   1
_chemical_formula_structural   LiZn2F5
_chemical_formula_sum   'Li4 Zn8 F20'
_cell_volume   377.66859943
_cell_formula_units_Z   4
loop_
 _symmetry_equiv_pos_site_id
 _symmetry_equiv_pos_as_xyz
  1  'x, y, z'
loop_
 _atom_site_type_symbol
 _atom_site_label
 _atom_site_symmetry_multiplicity
 _atom_site_fract_x
 _atom_site_fract_y
 _atom_site_fract_z
 _atom_site_occupancy
  Li  Li0  1  0.10417894  0.97606488  0.19193157  1.0
  Li  Li1  1  0.39582098  0.47606481  0.19193177  1.0
  Li  Li2  1  0.60417902  0.52393520  0.80806810  1.0
  Li  Li3  1  0.89582113  0.02393500  0.80806846  1.0
  Zn  Zn4  1  0.63278696  0.96752927  0.14729848  1.0
  Zn  Zn5  1  0.86721275  0.46752934  0.14729811  1.0
  Zn  Zn6  1  0.65708613  0.22150511  0.48621356  1.0
  Zn  Zn7  1  0.15708605  0.27849494  0.51378666  1.0
  Zn  Zn8  1  0.84291402  0.72150502  0.48621372  1.0
  Zn  Zn9  1  0.34291389  0.77849482  0.51378673  1.0
  Zn  Zn10  1  0.13278717  0.53247052  0.85270180  1.0
  Zn  Zn11  1  0.36721294  0.03247078  0.85270135  1.0
  F  F12  1  0.34745834  0.98246221  0.09490353  1.0
  F  F13  1  0.88286126  0.14053167  0.12756234  1.0
  F  F14  1  0.15254128  0.48246169  0.09490375  1.0
  F  F15  1  0.61713846  0.64053145  0.12756218  1.0
  F  F16  1  0.56603215  0.24804598  0.26836046  1.0
  F  F17  1  0.93396759  0.74804631  0.26836053  1.0
  F  F18  1  0.31861763  0.51103689  0.40304177  1.0
  F  F19  1  0.91467431  0.35213780  0.39080239  1.0
  F  F20  1  0.18138252  0.01103688  0.40304189  1.0
  F  F21  1  0.58532552  0.85213752  0.39080246  1.0
  F  F22  1  0.41467453  0.14786277  0.60919746  1.0
  F  F23  1  0.81861748  0.98896314  0.59695810  1.0
  F  F24  1  0.08532573  0.64786204  0.60919754  1.0
  F  F25  1  0.68138250  0.48896322  0.59695798  1.0
  F  F26  1  0.06603253  0.25195362  0.73163947  1.0
  F  F27  1  0.43396785  0.75195423  0.73163936  1.0
  F  F28  1  0.38286156  0.35946855  0.87243786  1.0
  F  F29  1  0.84745864  0.51753816  0.90509631  1.0
  F  F30  1  0.11713861  0.85946826  0.87243770  1.0
  F  F31  1  0.65254153  0.01753791  0.90509662  1.0
