# generated using pymatgen
data_LuSCl
_symmetry_space_group_name_H-M   'P 1'
_cell_length_a   5.27279129
_cell_length_b   3.87928377
_cell_length_c   8.33532154
_cell_angle_alpha   89.99988724
_cell_angle_beta   89.99994513
_cell_angle_gamma   89.99990566
_symmetry_Int_Tables_number   1
_chemical_formula_structural   LuSCl
_chemical_formula_sum   'Lu2 S2 Cl2'
_cell_volume   170.49611536
_cell_formula_units_Z   2
loop_
 _symmetry_equiv_pos_site_id
 _symmetry_equiv_pos_as_xyz
  1  'x, y, z'
loop_
 _atom_site_type_symbol
 _atom_site_label
 _atom_site_symmetry_multiplicity
 _atom_site_fract_x
 _atom_site_fract_y
 _atom_site_fract_z
 _atom_site_occupancy
  Lu  Lu0  1  0.74999996  0.75000039  0.63514433  1.0
  Lu  Lu1  1  0.24999976  0.25000076  0.36485665  1.0
  S  S2  1  0.74999984  0.25000061  0.41215526  1.0
  S  S3  1  0.24999990  0.74999987  0.58784468  1.0
  Cl  Cl4  1  0.25000052  0.75000034  0.15511474  1.0
  Cl  Cl5  1  0.75000002  0.24999805  0.84488434  1.0
