# generated using pymatgen
data_LuSeBr
_symmetry_space_group_name_H-M   'P 1'
_cell_length_a   5.56372215
_cell_length_b   4.01334031
_cell_length_c   8.96232080
_cell_angle_alpha   89.99981617
_cell_angle_beta   90.00003795
_cell_angle_gamma   89.99998079
_symmetry_Int_Tables_number   1
_chemical_formula_structural   LuSeBr
_chemical_formula_sum   'Lu2 Se2 Br2'
_cell_volume   200.12065039
_cell_formula_units_Z   2
loop_
 _symmetry_equiv_pos_site_id
 _symmetry_equiv_pos_as_xyz
  1  'x, y, z'
loop_
 _atom_site_type_symbol
 _atom_site_label
 _atom_site_symmetry_multiplicity
 _atom_site_fract_x
 _atom_site_fract_y
 _atom_site_fract_z
 _atom_site_occupancy
  Lu  Lu0  1  0.75000076  0.75000277  0.62649873  1.0
  Lu  Lu1  1  0.24999935  0.24999889  0.37350115  1.0
  Se  Se2  1  0.74999960  0.25000217  0.40654966  1.0
  Se  Se3  1  0.25000029  0.74999578  0.59345068  1.0
  Br  Br4  1  0.25000182  0.74999947  0.16053750  1.0
  Br  Br5  1  0.74999818  0.25000091  0.83946228  1.0
