# generated using pymatgen
data_LuSI
_symmetry_space_group_name_H-M   'P 1'
_cell_length_a   5.26303880
_cell_length_b   4.08256925
_cell_length_c   9.78155809
_cell_angle_alpha   89.99984472
_cell_angle_beta   90.00001622
_cell_angle_gamma   89.99999670
_symmetry_Int_Tables_number   1
_chemical_formula_structural   LuSI
_chemical_formula_sum   'Lu2 S2 I2'
_cell_volume   210.17360343
_cell_formula_units_Z   2
loop_
 _symmetry_equiv_pos_site_id
 _symmetry_equiv_pos_as_xyz
  1  'x, y, z'
loop_
 _atom_site_type_symbol
 _atom_site_label
 _atom_site_symmetry_multiplicity
 _atom_site_fract_x
 _atom_site_fract_y
 _atom_site_fract_z
 _atom_site_occupancy
  Lu  Lu0  1  0.74999992  0.75000022  0.61068351  1.0
  Lu  Lu1  1  0.25000013  0.25000004  0.38931648  1.0
  S  S2  1  0.75000010  0.25000109  0.43223283  1.0
  S  S3  1  0.24999986  0.74999897  0.56776750  1.0
  I  I4  1  0.24999977  0.75000184  0.16537488  1.0
  I  I5  1  0.75000021  0.24999784  0.83462479  1.0
