# generated using pymatgen
data_Mg2As2O7
_symmetry_space_group_name_H-M   'P 1'
_cell_length_a   8.42433482
_cell_length_b   6.71406440
_cell_length_c   9.52157782
_cell_angle_alpha   77.44868797
_cell_angle_beta   90.00000237
_cell_angle_gamma   90.00000153
_symmetry_Int_Tables_number   1
_chemical_formula_structural   Mg2As2O7
_chemical_formula_sum   'Mg8 As8 O28'
_cell_volume   525.68447104
_cell_formula_units_Z   4
loop_
 _symmetry_equiv_pos_site_id
 _symmetry_equiv_pos_as_xyz
  1  'x, y, z'
loop_
 _atom_site_type_symbol
 _atom_site_label
 _atom_site_symmetry_multiplicity
 _atom_site_fract_x
 _atom_site_fract_y
 _atom_site_fract_z
 _atom_site_occupancy
  Mg  Mg0  1  0.88853466  0.69333617  0.18491523  1.0
  Mg  Mg1  1  0.38853464  0.30666384  0.31508493  1.0
  Mg  Mg2  1  0.87973398  0.84746511  0.46820949  1.0
  Mg  Mg3  1  0.11146534  0.30666386  0.81508477  1.0
  Mg  Mg4  1  0.61146535  0.69333610  0.68491506  1.0
  Mg  Mg5  1  0.12026599  0.15253490  0.53179052  1.0
  Mg  Mg6  1  0.62026607  0.84746512  0.96820935  1.0
  Mg  Mg7  1  0.37973393  0.15253488  0.03179062  1.0
  As  As8  1  0.24808932  0.65362304  0.54005624  1.0
  As  As9  1  0.74808908  0.34637697  0.95994386  1.0
  As  As10  1  0.47620653  0.17820164  0.68145083  1.0
  As  As11  1  0.25191090  0.65362307  0.04005614  1.0
  As  As12  1  0.97620654  0.82179833  0.81854933  1.0
  As  As13  1  0.52379352  0.82179834  0.31854924  1.0
  As  As14  1  0.75191097  0.34637698  0.45994396  1.0
  As  As15  1  0.02379344  0.17820166  0.18145067  1.0
  O  O16  1  0.62361984  0.14460010  0.01252955  1.0
  O  O17  1  0.13341656  0.25770045  0.30943854  1.0
  O  O18  1  0.62248147  0.31245727  0.33463227  1.0
  O  O19  1  0.91073723  0.96987315  0.24906707  1.0
  O  O20  1  0.86658345  0.74229956  0.69056147  1.0
  O  O21  1  0.13394610  0.16529831  0.03354439  1.0
  O  O22  1  0.87638019  0.14460012  0.51252965  1.0
  O  O23  1  0.58926280  0.96987316  0.74906702  1.0
  O  O24  1  0.63851794  0.56442781  0.90677301  1.0
  O  O25  1  0.12601035  0.62171468  0.88432926  1.0
  O  O26  1  0.12361975  0.85539997  0.48747033  1.0
  O  O27  1  0.63341662  0.74229960  0.19056144  1.0
  O  O28  1  0.36605379  0.16529831  0.53354439  1.0
  O  O29  1  0.87398966  0.37828532  0.11567073  1.0
  O  O30  1  0.63394618  0.83470168  0.46645558  1.0
  O  O31  1  0.37638015  0.85539988  0.98747045  1.0
  O  O32  1  0.08926277  0.03012688  0.75093292  1.0
  O  O33  1  0.37398964  0.62171469  0.38432921  1.0
  O  O34  1  0.86148209  0.56442779  0.40677312  1.0
  O  O35  1  0.12248150  0.68754272  0.16536768  1.0
  O  O36  1  0.41073719  0.03012686  0.25093296  1.0
  O  O37  1  0.37751834  0.68754269  0.66536757  1.0
  O  O38  1  0.62601037  0.37828530  0.61567079  1.0
  O  O39  1  0.13851789  0.43557215  0.59322689  1.0
  O  O40  1  0.36658340  0.25770040  0.80943855  1.0
  O  O41  1  0.86605390  0.83470170  0.96645561  1.0
  O  O42  1  0.36148207  0.43557216  0.09322700  1.0
  O  O43  1  0.87751852  0.31245728  0.83463230  1.0
