# generated using pymatgen
data_Mg2Nb2O7
_symmetry_space_group_name_H-M   'P 1'
_cell_length_a   5.30167707
_cell_length_b   5.55625294
_cell_length_c   5.55625310
_cell_angle_alpha   105.80753761
_cell_angle_beta   97.48368809
_cell_angle_gamma   97.48362184
_symmetry_Int_Tables_number   1
_chemical_formula_structural   Mg2Nb2O7
_chemical_formula_sum   'Mg2 Nb2 O7'
_cell_volume   153.76789125
_cell_formula_units_Z   1
loop_
 _symmetry_equiv_pos_site_id
 _symmetry_equiv_pos_as_xyz
  1  'x, y, z'
loop_
 _atom_site_type_symbol
 _atom_site_label
 _atom_site_symmetry_multiplicity
 _atom_site_fract_x
 _atom_site_fract_y
 _atom_site_fract_z
 _atom_site_occupancy
  Mg  Mg0  1  0.49999990  0.68414133  0.31585855  1.0
  Mg  Mg1  1  0.49999990  0.31585870  0.68414144  1.0
  Nb  Nb2  1  0.10918322  0.74720345  0.74720403  1.0
  Nb  Nb3  1  0.89081660  0.25279654  0.25279599  1.0
  O  O4  1  0.30277548  0.95552603  0.60372158  1.0
  O  O5  1  0.69722468  0.39627828  0.04447426  1.0
  O  O6  1  0.69722423  0.04447403  0.39627846  1.0
  O  O7  1  0.30277525  0.60372167  0.95552565  1.0
  O  O8  1  0.99999993  0.99999995  0.00000010  1.0
  O  O9  1  0.76862807  0.55940782  0.55940770  1.0
  O  O10  1  0.23137175  0.44059221  0.44059226  1.0
