# generated using pymatgen
data_MgRhF6
_symmetry_space_group_name_H-M   'P 1'
_cell_length_a   5.42990555
_cell_length_b   5.43081165
_cell_length_c   5.42972564
_cell_angle_alpha   56.97039834
_cell_angle_beta   56.95336883
_cell_angle_gamma   56.97435748
_symmetry_Int_Tables_number   1
_chemical_formula_structural   MgRhF6
_chemical_formula_sum   'Mg1 Rh1 F6'
_cell_volume   105.29744352
_cell_formula_units_Z   1
loop_
 _symmetry_equiv_pos_site_id
 _symmetry_equiv_pos_as_xyz
  1  'x, y, z'
loop_
 _atom_site_type_symbol
 _atom_site_label
 _atom_site_symmetry_multiplicity
 _atom_site_fract_x
 _atom_site_fract_y
 _atom_site_fract_z
 _atom_site_occupancy
  Mg  Mg0  1  0.99999996  0.99999993  0.99999998  1.0
  Rh  Rh1  1  0.50000105  0.50000138  0.50000105  1.0
  F  F2  1  0.37388347  0.13732278  0.74245013  1.0
  F  F3  1  0.13758790  0.74220164  0.37395368  1.0
  F  F4  1  0.25746469  0.62628823  0.86279134  1.0
  F  F5  1  0.86241076  0.25779916  0.62604582  1.0
  F  F6  1  0.62611591  0.86267569  0.25755085  1.0
  F  F7  1  0.74253626  0.37371118  0.13720715  1.0
