# generated using pymatgen
data_MgSO3
_symmetry_space_group_name_H-M   'P 1'
_cell_length_a   7.80162104
_cell_length_b   7.80162072
_cell_length_c   7.80162077
_cell_angle_alpha   109.37933067
_cell_angle_beta   109.37932875
_cell_angle_gamma   109.37932662
_symmetry_Int_Tables_number   1
_chemical_formula_structural   MgSO3
_chemical_formula_sum   'Mg6 S6 O18'
_cell_volume   366.77644808
_cell_formula_units_Z   6
loop_
 _symmetry_equiv_pos_site_id
 _symmetry_equiv_pos_as_xyz
  1  'x, y, z'
loop_
 _atom_site_type_symbol
 _atom_site_label
 _atom_site_symmetry_multiplicity
 _atom_site_fract_x
 _atom_site_fract_y
 _atom_site_fract_z
 _atom_site_occupancy
  Mg  Mg0  1  0.18655492  0.37073948  0.68626436  1.0
  Mg  Mg1  1  0.37073946  0.68626430  0.18655488  1.0
  Mg  Mg2  1  0.68626432  0.18655490  0.37073944  1.0
  Mg  Mg3  1  0.81344510  0.62926052  0.31373569  1.0
  Mg  Mg4  1  0.62926054  0.31373575  0.81344514  1.0
  Mg  Mg5  1  0.31373572  0.81344512  0.62926057  1.0
  S  S6  1  0.20850883  0.02613851  0.35320921  1.0
  S  S7  1  0.02613833  0.35320904  0.20850873  1.0
  S  S8  1  0.35320890  0.20850860  0.02613830  1.0
  S  S9  1  0.79149135  0.97386156  0.64679092  1.0
  S  S10  1  0.97386168  0.64679106  0.79149141  1.0
  S  S11  1  0.64679108  0.79149139  0.97386166  1.0
  O  O12  1  0.88776844  0.13803986  0.58758585  1.0
  O  O13  1  0.13803982  0.58758581  0.88776841  1.0
  O  O14  1  0.58758578  0.88776844  0.13803985  1.0
  O  O15  1  0.11223153  0.86196011  0.41241411  1.0
  O  O16  1  0.86196020  0.41241415  0.11223158  1.0
  O  O17  1  0.41241421  0.11223156  0.86196014  1.0
  O  O18  1  0.31517777  0.37724402  0.98266071  1.0
  O  O19  1  0.37724396  0.98266074  0.31517773  1.0
  O  O20  1  0.98266073  0.31517773  0.37724393  1.0
  O  O21  1  0.68482225  0.62275596  0.01733930  1.0
  O  O22  1  0.62275593  0.01733932  0.68482228  1.0
  O  O23  1  0.01733929  0.68482226  0.62275594  1.0
  O  O24  1  0.43461819  0.66008519  0.76492421  1.0
  O  O25  1  0.76492418  0.43461818  0.66008516  1.0
  O  O26  1  0.66008527  0.76492433  0.43461829  1.0
  O  O27  1  0.56538184  0.33991481  0.23507583  1.0
  O  O28  1  0.23507574  0.56538173  0.33991475  1.0
  O  O29  1  0.33991466  0.23507559  0.56538163  1.0
