# generated using pymatgen
data_MgTiF6
_symmetry_space_group_name_H-M   'P 1'
_cell_length_a   5.46123906
_cell_length_b   5.46123982
_cell_length_c   5.46124025
_cell_angle_alpha   58.53291785
_cell_angle_beta   58.53292948
_cell_angle_gamma   58.53293985
_symmetry_Int_Tables_number   1
_chemical_formula_structural   MgTiF6
_chemical_formula_sum   'Mg1 Ti1 F6'
_cell_volume   111.31051177
_cell_formula_units_Z   1
loop_
 _symmetry_equiv_pos_site_id
 _symmetry_equiv_pos_as_xyz
  1  'x, y, z'
loop_
 _atom_site_type_symbol
 _atom_site_label
 _atom_site_symmetry_multiplicity
 _atom_site_fract_x
 _atom_site_fract_y
 _atom_site_fract_z
 _atom_site_occupancy
  Mg  Mg0  1  0.99999993  0.00000015  0.99999991  1.0
  Ti  Ti1  1  0.50000052  0.49999950  0.50000011  1.0
  F  F2  1  0.33052898  0.18531576  0.74167841  1.0
  F  F3  1  0.18531527  0.74167862  0.33052905  1.0
  F  F4  1  0.25832161  0.66947110  0.81468454  1.0
  F  F5  1  0.81468423  0.25832155  0.66947093  1.0
  F  F6  1  0.66947108  0.81468425  0.25832149  1.0
  F  F7  1  0.74167837  0.33052906  0.18531557  1.0
