# generated using pymatgen
data_Mn2As2O7
_symmetry_space_group_name_H-M   'P 1'
_cell_length_a   4.90557798
_cell_length_b   5.61489381
_cell_length_c   5.61489409
_cell_angle_alpha   105.03501500
_cell_angle_beta   97.69059265
_cell_angle_gamma   97.69056370
_symmetry_Int_Tables_number   1
_chemical_formula_structural   Mn2As2O7
_chemical_formula_sum   'Mn2 As2 O7'
_cell_volume   145.70736238
_cell_formula_units_Z   1
loop_
 _symmetry_equiv_pos_site_id
 _symmetry_equiv_pos_as_xyz
  1  'x, y, z'
loop_
 _atom_site_type_symbol
 _atom_site_label
 _atom_site_symmetry_multiplicity
 _atom_site_fract_x
 _atom_site_fract_y
 _atom_site_fract_z
 _atom_site_occupancy
  Mn  Mn0  1  0.49999990  0.69252054  0.30747940  1.0
  Mn  Mn1  1  0.49999991  0.30747944  0.69252060  1.0
  As  As2  1  0.09625521  0.76781601  0.76781619  1.0
  As  As3  1  0.90374462  0.23218401  0.23218380  1.0
  O  O4  1  0.28708274  0.92541061  0.60526534  1.0
  O  O5  1  0.71291715  0.39473448  0.07458949  1.0
  O  O6  1  0.71291698  0.07458939  0.39473460  1.0
  O  O7  1  0.28708278  0.60526558  0.92541050  1.0
  O  O8  1  0.99999992  0.99999995  0.00000006  1.0
  O  O9  1  0.77807925  0.60288138  0.60288140  1.0
  O  O10  1  0.22192053  0.39711861  0.39711863  1.0
