# generated using pymatgen
data_MnAg2F6
_symmetry_space_group_name_H-M   'P 1'
_cell_length_a   6.34114463
_cell_length_b   6.34114600
_cell_length_c   4.91863638
_cell_angle_alpha   89.99993221
_cell_angle_beta   90.00007735
_cell_angle_gamma   120.00029747
_symmetry_Int_Tables_number   1
_chemical_formula_structural   MnAg2F6
_chemical_formula_sum   'Mn1 Ag2 F6'
_cell_volume   171.28110611
_cell_formula_units_Z   1
loop_
 _symmetry_equiv_pos_site_id
 _symmetry_equiv_pos_as_xyz
  1  'x, y, z'
loop_
 _atom_site_type_symbol
 _atom_site_label
 _atom_site_symmetry_multiplicity
 _atom_site_fract_x
 _atom_site_fract_y
 _atom_site_fract_z
 _atom_site_occupancy
  Mn  Mn0  1  0.00000000  0.00000000  0.00000000  1.0
  Ag  Ag1  1  0.33333333  0.66666667  0.28610164  1.0
  Ag  Ag2  1  0.66666667  0.33333333  0.71389836  1.0
  F  F3  1  0.13577306  0.86422685  0.21781125  1.0
  F  F4  1  0.13577380  0.27154646  0.21781114  1.0
  F  F5  1  0.27154643  0.13577383  0.78218867  1.0
  F  F6  1  0.72845357  0.86422617  0.21781133  1.0
  F  F7  1  0.86422620  0.72845353  0.78218886  1.0
  F  F8  1  0.86422694  0.13577315  0.78218875  1.0
