# generated using pymatgen
data_MnBiO3
_symmetry_space_group_name_H-M   'P 1'
_cell_length_a   5.69418083
_cell_length_b   5.69418082
_cell_length_c   5.69418408
_cell_angle_alpha   59.26163317
_cell_angle_beta   59.26163501
_cell_angle_gamma   59.26168243
_symmetry_Int_Tables_number   1
_chemical_formula_structural   MnBiO3
_chemical_formula_sum   'Mn2 Bi2 O6'
_cell_volume   128.35528538
_cell_formula_units_Z   2
loop_
 _symmetry_equiv_pos_site_id
 _symmetry_equiv_pos_as_xyz
  1  'x, y, z'
loop_
 _atom_site_type_symbol
 _atom_site_label
 _atom_site_symmetry_multiplicity
 _atom_site_fract_x
 _atom_site_fract_y
 _atom_site_fract_z
 _atom_site_occupancy
  Mn  Mn0  1  0.71995988  0.71995996  0.71995991  1.0
  Mn  Mn1  1  0.21996393  0.21996391  0.21996394  1.0
  Bi  Bi2  1  0.00148714  0.00148732  0.00148734  1.0
  Bi  Bi3  1  0.50148624  0.50148603  0.50148617  1.0
  O  O4  1  0.89542900  0.44066300  0.03895155  1.0
  O  O5  1  0.53896542  0.94064999  0.39543972  1.0
  O  O6  1  0.44066372  0.03895134  0.89542858  1.0
  O  O7  1  0.39543998  0.53896549  0.94064967  1.0
  O  O8  1  0.94064927  0.39544020  0.53896566  1.0
  O  O9  1  0.03895140  0.89542876  0.44066345  1.0
