# generated using pymatgen
data_MnHO2
_symmetry_space_group_name_H-M   'P 1'
_cell_length_a   2.94638514
_cell_length_b   4.48354189
_cell_length_c   5.32620761
_cell_angle_alpha   89.99998018
_cell_angle_beta   89.99999957
_cell_angle_gamma   90.00000045
_symmetry_Int_Tables_number   1
_chemical_formula_structural   MnHO2
_chemical_formula_sum   'Mn2 H2 O4'
_cell_volume   70.36048721
_cell_formula_units_Z   2
loop_
 _symmetry_equiv_pos_site_id
 _symmetry_equiv_pos_as_xyz
  1  'x, y, z'
loop_
 _atom_site_type_symbol
 _atom_site_label
 _atom_site_symmetry_multiplicity
 _atom_site_fract_x
 _atom_site_fract_y
 _atom_site_fract_z
 _atom_site_occupancy
  Mn  Mn0  1  0.50000000  0.22890279  0.50194444  1.0
  Mn  Mn1  1  0.99999999  0.77109731  0.00194466  1.0
  H  H2  1  0.49999999  0.30727713  0.01561221  1.0
  H  H3  1  0.00000000  0.69272286  0.51561240  1.0
  O  O4  1  0.00000002  0.49719516  0.62122367  1.0
  O  O5  1  0.49999999  0.50280475  0.12122373  1.0
  O  O6  1  0.00000000  0.98851140  0.37451945  1.0
  O  O7  1  0.50000000  0.01148861  0.87451943  1.0
