# generated using pymatgen
data_MnPbF6
_symmetry_space_group_name_H-M   'P 1'
_cell_length_a   5.86629259
_cell_length_b   5.86629285
_cell_length_c   5.86629188
_cell_angle_alpha   54.17732155
_cell_angle_beta   54.17733536
_cell_angle_gamma   54.17731843
_symmetry_Int_Tables_number   1
_chemical_formula_structural   MnPbF6
_chemical_formula_sum   'Mn1 Pb1 F6'
_cell_volume   123.34830429
_cell_formula_units_Z   1
loop_
 _symmetry_equiv_pos_site_id
 _symmetry_equiv_pos_as_xyz
  1  'x, y, z'
loop_
 _atom_site_type_symbol
 _atom_site_label
 _atom_site_symmetry_multiplicity
 _atom_site_fract_x
 _atom_site_fract_y
 _atom_site_fract_z
 _atom_site_occupancy
  Mn  Mn0  1  0.00000004  0.00000000  0.99999998  1.0
  Pb  Pb1  1  0.50000000  0.49999994  0.50000005  1.0
  F  F2  1  0.38722973  0.11230199  0.75027218  1.0
  F  F3  1  0.11230194  0.75027231  0.38722971  1.0
  F  F4  1  0.24972774  0.61277018  0.88769807  1.0
  F  F5  1  0.88769793  0.24972768  0.61277040  1.0
  F  F6  1  0.61277028  0.88769812  0.24972776  1.0
  F  F7  1  0.75027233  0.38722979  0.11230184  1.0
