# generated using pymatgen
data_MnSnO3
_symmetry_space_group_name_H-M   'P 1'
_cell_length_a   5.42802394
_cell_length_b   5.56168337
_cell_length_c   7.92226966
_cell_angle_alpha   89.99995115
_cell_angle_beta   90.00003870
_cell_angle_gamma   90.00131802
_symmetry_Int_Tables_number   1
_chemical_formula_structural   MnSnO3
_chemical_formula_sum   'Mn4 Sn4 O12'
_cell_volume   239.16500638
_cell_formula_units_Z   4
loop_
 _symmetry_equiv_pos_site_id
 _symmetry_equiv_pos_as_xyz
  1  'x, y, z'
loop_
 _atom_site_type_symbol
 _atom_site_label
 _atom_site_symmetry_multiplicity
 _atom_site_fract_x
 _atom_site_fract_y
 _atom_site_fract_z
 _atom_site_occupancy
  Mn  Mn0  1  0.49234793  0.45302598  0.75000096  1.0
  Mn  Mn1  1  0.50764602  0.54697111  0.24999967  1.0
  Mn  Mn2  1  0.00761724  0.95303005  0.74999961  1.0
  Mn  Mn3  1  0.99238772  0.04696838  0.25000068  1.0
  Sn  Sn4  1  0.99999603  0.50000010  0.99999990  1.0
  Sn  Sn5  1  0.99999702  0.49999944  0.50000038  1.0
  Sn  Sn6  1  0.50000215  0.00000053  0.99999941  1.0
  Sn  Sn7  1  0.50000291  0.99999931  0.50000057  1.0
  O  O8  1  0.12716213  0.43091254  0.24999989  1.0
  O  O9  1  0.37284944  0.93091280  0.24999996  1.0
  O  O10  1  0.62715463  0.06908625  0.75000003  1.0
  O  O11  1  0.87283339  0.56908601  0.74999994  1.0
  O  O12  1  0.18102130  0.18528085  0.56799433  1.0
  O  O13  1  0.18102209  0.18528229  0.93200477  1.0
  O  O14  1  0.31898541  0.68527782  0.56798851  1.0
  O  O15  1  0.31898426  0.68527923  0.93201245  1.0
  O  O16  1  0.68101329  0.31472260  0.06798822  1.0
  O  O17  1  0.68101459  0.31472125  0.43200950  1.0
  O  O18  1  0.81898187  0.81472130  0.06799412  1.0
  O  O19  1  0.81898256  0.81472115  0.43200610  1.0
