# generated using pymatgen
data_MnSO3
_symmetry_space_group_name_H-M   'P 1'
_cell_length_a   8.05031853
_cell_length_b   8.05031885
_cell_length_c   8.05031853
_cell_angle_alpha   109.27943561
_cell_angle_beta   109.27943665
_cell_angle_gamma   109.27943723
_symmetry_Int_Tables_number   1
_chemical_formula_structural   MnSO3
_chemical_formula_sum   'Mn6 S6 O18'
_cell_volume   404.44846540
_cell_formula_units_Z   6
loop_
 _symmetry_equiv_pos_site_id
 _symmetry_equiv_pos_as_xyz
  1  'x, y, z'
loop_
 _atom_site_type_symbol
 _atom_site_label
 _atom_site_symmetry_multiplicity
 _atom_site_fract_x
 _atom_site_fract_y
 _atom_site_fract_z
 _atom_site_occupancy
  Mn  Mn0  1  0.18523909  0.36514530  0.67921721  1.0
  Mn  Mn1  1  0.36514526  0.67921719  0.18523906  1.0
  Mn  Mn2  1  0.67921714  0.18523903  0.36514520  1.0
  Mn  Mn3  1  0.81476090  0.63485467  0.32078278  1.0
  Mn  Mn4  1  0.63485472  0.32078279  0.81476092  1.0
  Mn  Mn5  1  0.32078283  0.81476095  0.63485477  1.0
  S  S6  1  0.20977876  0.02322258  0.35325332  1.0
  S  S7  1  0.02322260  0.35325334  0.20977879  1.0
  S  S8  1  0.35325334  0.20977879  0.02322257  1.0
  S  S9  1  0.79022126  0.97677741  0.64674669  1.0
  S  S10  1  0.97677740  0.64674666  0.79022122  1.0
  S  S11  1  0.64674665  0.79022121  0.97677741  1.0
  O  O12  1  0.87941646  0.13238081  0.58327272  1.0
  O  O13  1  0.13238078  0.58327272  0.87941645  1.0
  O  O14  1  0.58327269  0.87941640  0.13238077  1.0
  O  O15  1  0.12058355  0.86761920  0.41672729  1.0
  O  O16  1  0.86761923  0.41672729  0.12058356  1.0
  O  O17  1  0.41672733  0.12058362  0.86761924  1.0
  O  O18  1  0.31214595  0.37074648  0.97896407  1.0
  O  O19  1  0.37074649  0.97896407  0.31214598  1.0
  O  O20  1  0.97896399  0.31214591  0.37074643  1.0
  O  O21  1  0.68785405  0.62925351  0.02103595  1.0
  O  O22  1  0.62925351  0.02103595  0.68785405  1.0
  O  O23  1  0.02103602  0.68785411  0.62925356  1.0
  O  O24  1  0.44484252  0.65947813  0.77092094  1.0
  O  O25  1  0.77092092  0.44484248  0.65947807  1.0
  O  O26  1  0.65947811  0.77092091  0.44484248  1.0
  O  O27  1  0.55515748  0.34052187  0.22907907  1.0
  O  O28  1  0.22907910  0.55515754  0.34052192  1.0
  O  O29  1  0.34052188  0.22907909  0.55515751  1.0
