# generated using pymatgen
data_Mo2SO2
_symmetry_space_group_name_H-M   'P 1'
_cell_length_a   3.46766499
_cell_length_b   3.46746135
_cell_length_c   7.15005663
_cell_angle_alpha   89.99628847
_cell_angle_beta   90.00867951
_cell_angle_gamma   119.99551295
_symmetry_Int_Tables_number   1
_chemical_formula_structural   Mo2SO2
_chemical_formula_sum   'Mo2 S1 O2'
_cell_volume   74.45750949
_cell_formula_units_Z   1
loop_
 _symmetry_equiv_pos_site_id
 _symmetry_equiv_pos_as_xyz
  1  'x, y, z'
loop_
 _atom_site_type_symbol
 _atom_site_label
 _atom_site_symmetry_multiplicity
 _atom_site_fract_x
 _atom_site_fract_y
 _atom_site_fract_z
 _atom_site_occupancy
  Mo  Mo0  1  0.66666667  0.33333333  0.75932051  1.0
  Mo  Mo1  1  0.33338903  0.66666667  0.24068028  1.0
  S  S2  1  0.00000496  0.99999250  0.99999996  1.0
  O  O3  1  0.66666667  0.33333333  0.34721215  1.0
  O  O4  1  0.33333333  0.66666667  0.65278711  1.0
