# generated using pymatgen
data_MoClO
_symmetry_space_group_name_H-M   'P 1'
_cell_length_a   4.94300103
_cell_length_b   3.48604203
_cell_length_c   5.93539249
_cell_angle_alpha   89.99995187
_cell_angle_beta   89.98563910
_cell_angle_gamma   90.00000831
_symmetry_Int_Tables_number   1
_chemical_formula_structural   MoClO
_chemical_formula_sum   'Mo2 Cl2 O2'
_cell_volume   102.27576794
_cell_formula_units_Z   2
loop_
 _symmetry_equiv_pos_site_id
 _symmetry_equiv_pos_as_xyz
  1  'x, y, z'
loop_
 _atom_site_type_symbol
 _atom_site_label
 _atom_site_symmetry_multiplicity
 _atom_site_fract_x
 _atom_site_fract_y
 _atom_site_fract_z
 _atom_site_occupancy
  Mo  Mo0  1  0.89160600  0.74999939  0.81830623  1.0
  Mo  Mo1  1  0.39124480  0.25000017  0.18120870  1.0
  Cl  Cl2  1  0.16871136  0.25000051  0.60661915  1.0
  Cl  Cl3  1  0.66761935  0.74999968  0.39439336  1.0
  O  O4  1  0.69031126  0.24999991  0.93549847  1.0
  O  O5  1  0.19050723  0.75000035  0.06397410  1.0
