# generated using pymatgen
data_Na2CdP2O7
_symmetry_space_group_name_H-M   'P 1'
_cell_length_a   14.08009018
_cell_length_b   5.49419764
_cell_length_c   10.31266189
_cell_angle_alpha   59.66824206
_cell_angle_beta   90.00000223
_cell_angle_gamma   90.00000257
_symmetry_Int_Tables_number   1
_chemical_formula_structural   Na2CdP2O7
_chemical_formula_sum   'Na8 Cd4 P8 O28'
_cell_volume   688.57229449
_cell_formula_units_Z   4
loop_
 _symmetry_equiv_pos_site_id
 _symmetry_equiv_pos_as_xyz
  1  'x, y, z'
loop_
 _atom_site_type_symbol
 _atom_site_label
 _atom_site_symmetry_multiplicity
 _atom_site_fract_x
 _atom_site_fract_y
 _atom_site_fract_z
 _atom_site_occupancy
  Na  Na0  1  0.30044031  0.59095527  0.14816120  1.0
  Na  Na1  1  0.19955971  0.59095521  0.64816115  1.0
  Na  Na2  1  0.69955968  0.40904475  0.85183878  1.0
  Na  Na3  1  0.80044030  0.40904478  0.35183888  1.0
  Na  Na4  1  0.60736016  0.06081826  0.63893276  1.0
  Na  Na5  1  0.89263984  0.06081820  0.13893276  1.0
  Na  Na6  1  0.39263985  0.93918177  0.36106722  1.0
  Na  Na7  1  0.10736016  0.93918180  0.86106726  1.0
  Cd  Cd8  1  0.33788671  0.97639649  0.73247297  1.0
  Cd  Cd9  1  0.16211330  0.97639650  0.23247298  1.0
  Cd  Cd10  1  0.66211329  0.02360352  0.26752702  1.0
  Cd  Cd11  1  0.83788670  0.02360349  0.76752704  1.0
  P  P12  1  0.03724226  0.47461847  0.23024818  1.0
  P  P13  1  0.46275775  0.47461850  0.73024816  1.0
  P  P14  1  0.96275775  0.52538153  0.76975183  1.0
  P  P15  1  0.53724225  0.52538152  0.26975181  1.0
  P  P16  1  0.18604744  0.27619361  0.45368797  1.0
  P  P17  1  0.31395258  0.27619358  0.95368798  1.0
  P  P18  1  0.81395256  0.72380641  0.54631203  1.0
  P  P19  1  0.68604742  0.72380638  0.04631203  1.0
  O  O20  1  0.22301727  0.56237789  0.42667358  1.0
  O  O21  1  0.27698275  0.56237787  0.92667357  1.0
  O  O22  1  0.77698272  0.43762211  0.57332644  1.0
  O  O23  1  0.72301726  0.43762211  0.07332642  1.0
  O  O24  1  0.23691370  0.17620120  0.35670679  1.0
  O  O25  1  0.26308632  0.17620111  0.85670681  1.0
  O  O26  1  0.76308630  0.82379884  0.64329321  1.0
  O  O27  1  0.73691369  0.82379885  0.14329320  1.0
  O  O28  1  0.03553819  0.24202965  0.18776033  1.0
  O  O29  1  0.46446182  0.24202969  0.68776031  1.0
  O  O30  1  0.96446180  0.75797034  0.81223969  1.0
  O  O31  1  0.53553819  0.75797032  0.31223967  1.0
  O  O32  1  0.11316575  0.70213376  0.13704453  1.0
  O  O33  1  0.38683423  0.70213371  0.63704453  1.0
  O  O34  1  0.88683425  0.29786625  0.86295548  1.0
  O  O35  1  0.61316576  0.29786627  0.36295547  1.0
  O  O36  1  0.94078345  0.59093832  0.23161220  1.0
  O  O37  1  0.55921654  0.59093842  0.73161216  1.0
  O  O38  1  0.05921655  0.40906168  0.76838782  1.0
  O  O39  1  0.44078345  0.40906160  0.26838781  1.0
  O  O40  1  0.18994148  0.05025286  0.62163953  1.0
  O  O41  1  0.31005854  0.05025290  0.12163952  1.0
  O  O42  1  0.81005852  0.94974711  0.37836049  1.0
  O  O43  1  0.68994146  0.94974711  0.87836046  1.0
  O  O44  1  0.07472086  0.31652121  0.40745741  1.0
  O  O45  1  0.42527917  0.31652118  0.90745742  1.0
  O  O46  1  0.92527914  0.68347880  0.59254260  1.0
  O  O47  1  0.57472084  0.68347879  0.09254257  1.0
