# generated using pymatgen
data_Na2MnF4
_symmetry_space_group_name_H-M   'P 1'
_cell_length_a   6.72508651
_cell_length_b   6.72508653
_cell_length_c   6.72515898
_cell_angle_alpha   143.71722290
_cell_angle_beta   143.71722352
_cell_angle_gamma   52.25110887
_symmetry_Int_Tables_number   1
_chemical_formula_structural   Na2MnF4
_chemical_formula_sum   'Na2 Mn1 F4'
_cell_volume   105.89780015
_cell_formula_units_Z   1
loop_
 _symmetry_equiv_pos_site_id
 _symmetry_equiv_pos_as_xyz
  1  'x, y, z'
loop_
 _atom_site_type_symbol
 _atom_site_label
 _atom_site_symmetry_multiplicity
 _atom_site_fract_x
 _atom_site_fract_y
 _atom_site_fract_z
 _atom_site_occupancy
  Na  Na0  1  0.35360824  0.35360818  0.00000561  1.0
  Na  Na1  1  0.64639179  0.64639176  0.99999437  1.0
  Mn  Mn2  1  0.99999989  0.00000007  0.99999996  1.0
  F  F3  1  0.17368894  0.17368892  0.00000547  1.0
  F  F4  1  0.82631111  0.82631106  0.99999456  1.0
  F  F5  1  0.50000001  0.00000000  0.50000001  1.0
  F  F6  1  0.00000003  0.50000000  0.50000002  1.0
