# generated using pymatgen
data_Na2ZnP2O7
_symmetry_space_group_name_H-M   'P 1'
_cell_length_a   13.68982106
_cell_length_b   5.25142626
_cell_length_c   10.25981111
_cell_angle_alpha   60.83227703
_cell_angle_beta   90.00000278
_cell_angle_gamma   90.00000017
_symmetry_Int_Tables_number   1
_chemical_formula_structural   Na2ZnP2O7
_chemical_formula_sum   'Na8 Zn4 P8 O28'
_cell_volume   644.06029811
_cell_formula_units_Z   4
loop_
 _symmetry_equiv_pos_site_id
 _symmetry_equiv_pos_as_xyz
  1  'x, y, z'
loop_
 _atom_site_type_symbol
 _atom_site_label
 _atom_site_symmetry_multiplicity
 _atom_site_fract_x
 _atom_site_fract_y
 _atom_site_fract_z
 _atom_site_occupancy
  Na  Na0  1  0.29669952  0.59416958  0.14297858  1.0
  Na  Na1  1  0.20330048  0.59416960  0.64297858  1.0
  Na  Na2  1  0.70330049  0.40583042  0.85702142  1.0
  Na  Na3  1  0.79669952  0.40583040  0.35702142  1.0
  Na  Na4  1  0.60505478  0.06881586  0.63471047  1.0
  Na  Na5  1  0.89494522  0.06881584  0.13471042  1.0
  Na  Na6  1  0.39494522  0.93118414  0.36528953  1.0
  Na  Na7  1  0.10505478  0.93118416  0.86528958  1.0
  Zn  Zn8  1  0.33020062  0.96958178  0.73757322  1.0
  Zn  Zn9  1  0.16979940  0.96958182  0.23757307  1.0
  Zn  Zn10  1  0.66979938  0.03041822  0.26242678  1.0
  Zn  Zn11  1  0.83020060  0.03041819  0.76242693  1.0
  P  P12  1  0.04163926  0.46621207  0.23341101  1.0
  P  P13  1  0.45836076  0.46621209  0.73341102  1.0
  P  P14  1  0.95836074  0.53378793  0.76658899  1.0
  P  P15  1  0.54163926  0.53378791  0.26658899  1.0
  P  P16  1  0.19044312  0.28587778  0.45074200  1.0
  P  P17  1  0.30955691  0.28587776  0.95074201  1.0
  P  P18  1  0.80955688  0.71412223  0.54925799  1.0
  P  P19  1  0.69044309  0.71412223  0.04925799  1.0
  O  O20  1  0.22715538  0.59260124  0.41212518  1.0
  O  O21  1  0.27284464  0.59260121  0.91212520  1.0
  O  O22  1  0.77284462  0.40739877  0.58787482  1.0
  O  O23  1  0.72715537  0.40739879  0.08787480  1.0
  O  O24  1  0.23806447  0.16330220  0.35790066  1.0
  O  O25  1  0.26193554  0.16330219  0.85790067  1.0
  O  O26  1  0.76193553  0.83669780  0.64209934  1.0
  O  O27  1  0.73806446  0.83669782  0.14209932  1.0
  O  O28  1  0.05198535  0.22014874  0.19187297  1.0
  O  O29  1  0.44801467  0.22014873  0.69187299  1.0
  O  O30  1  0.94801465  0.77985126  0.80812703  1.0
  O  O31  1  0.55198534  0.77985126  0.30812701  1.0
  O  O32  1  0.11611737  0.71503938  0.14522855  1.0
  O  O33  1  0.38388263  0.71503937  0.64522858  1.0
  O  O34  1  0.88388263  0.28496062  0.85477145  1.0
  O  O35  1  0.61611737  0.28496063  0.35477142  1.0
  O  O36  1  0.93804127  0.56641637  0.22663699  1.0
  O  O37  1  0.56195874  0.56641638  0.72663701  1.0
  O  O38  1  0.06195873  0.43358363  0.77336302  1.0
  O  O39  1  0.43804126  0.43358362  0.27336300  1.0
  O  O40  1  0.19910232  0.07627283  0.61975369  1.0
  O  O41  1  0.30089771  0.07627281  0.11975369  1.0
  O  O42  1  0.80089768  0.92372717  0.38024631  1.0
  O  O43  1  0.69910229  0.92372719  0.88024631  1.0
  O  O44  1  0.07484010  0.31837250  0.41148984  1.0
  O  O45  1  0.42515992  0.31837247  0.91148986  1.0
  O  O46  1  0.92515989  0.68162750  0.58851016  1.0
  O  O47  1  0.57484009  0.68162753  0.08851014  1.0
