# generated using pymatgen
data_NaFeF3
_symmetry_space_group_name_H-M   'P 1'
_cell_length_a   6.72418030
_cell_length_b   6.72148663
_cell_length_c   6.46800992
_cell_angle_alpha   85.88771230
_cell_angle_beta   85.83970740
_cell_angle_gamma   83.40477577
_symmetry_Int_Tables_number   1
_chemical_formula_structural   NaFeF3
_chemical_formula_sum   'Na4 Fe4 F12'
_cell_volume   289.03837348
_cell_formula_units_Z   4
loop_
 _symmetry_equiv_pos_site_id
 _symmetry_equiv_pos_as_xyz
  1  'x, y, z'
loop_
 _atom_site_type_symbol
 _atom_site_label
 _atom_site_symmetry_multiplicity
 _atom_site_fract_x
 _atom_site_fract_y
 _atom_site_fract_z
 _atom_site_occupancy
  Na  Na0  1  0.64494024  0.64492098  0.84850829  1.0
  Na  Na1  1  0.69863052  0.30116142  0.50008421  1.0
  Na  Na2  1  0.30134860  0.69885828  0.49991543  1.0
  Na  Na3  1  0.35509473  0.35504262  0.15149234  1.0
  Fe  Fe4  1  0.74998038  0.75011154  0.24751274  1.0
  Fe  Fe5  1  0.82077516  0.17940628  0.99980525  1.0
  Fe  Fe6  1  0.17923258  0.82058725  0.00019515  1.0
  Fe  Fe7  1  0.25002244  0.24988445  0.75248877  1.0
  F  F8  1  0.86102483  0.86087101  0.94219773  1.0
  F  F9  1  0.64310454  0.64294297  0.52077804  1.0
  F  F10  1  0.94022267  0.28306048  0.72143995  1.0
  F  F11  1  0.28318342  0.94035469  0.72187914  1.0
  F  F12  1  0.45348053  0.75991510  0.14050120  1.0
  F  F13  1  0.75988737  0.45374340  0.14059247  1.0
  F  F14  1  0.54653670  0.24007988  0.85949625  1.0
  F  F15  1  0.24011856  0.54623820  0.85940807  1.0
  F  F16  1  0.05975761  0.71693815  0.27854377  1.0
  F  F17  1  0.71681845  0.05966756  0.27813623  1.0
  F  F18  1  0.35685301  0.35710191  0.47922029  1.0
  F  F19  1  0.13898768  0.13911384  0.05780468  1.0
