# generated using pymatgen
data_NaGaS2
_symmetry_space_group_name_H-M   'P 1'
_cell_length_a   6.49463469
_cell_length_b   6.67577652
_cell_length_c   8.89294529
_cell_angle_alpha   89.99995580
_cell_angle_beta   90.00002826
_cell_angle_gamma   89.99997817
_symmetry_Int_Tables_number   1
_chemical_formula_structural   NaGaS2
_chemical_formula_sum   'Na4 Ga4 S8'
_cell_volume   385.56902579
_cell_formula_units_Z   4
loop_
 _symmetry_equiv_pos_site_id
 _symmetry_equiv_pos_as_xyz
  1  'x, y, z'
loop_
 _atom_site_type_symbol
 _atom_site_label
 _atom_site_symmetry_multiplicity
 _atom_site_fract_x
 _atom_site_fract_y
 _atom_site_fract_z
 _atom_site_occupancy
  Na  Na0  1  0.60580284  0.57345009  0.11840916  1.0
  Na  Na1  1  0.10580282  0.92654985  0.61840842  1.0
  Na  Na2  1  0.60580289  0.07345006  0.38159228  1.0
  Na  Na3  1  0.10580304  0.42655023  0.88159137  1.0
  Ga  Ga4  1  0.62389471  0.56131413  0.62629256  1.0
  Ga  Ga5  1  0.12389452  0.43868552  0.37370699  1.0
  Ga  Ga6  1  0.12389484  0.93868574  0.12629310  1.0
  Ga  Ga7  1  0.62389482  0.06131440  0.87370660  1.0
  S  S8  1  0.97590518  0.03258277  0.90257060  1.0
  S  S9  1  0.97590557  0.53258239  0.59742963  1.0
  S  S10  1  0.47590560  0.96741752  0.09742916  1.0
  S  S11  1  0.47590515  0.46741717  0.40257029  1.0
  S  S12  1  0.53060595  0.89385088  0.65804668  1.0
  S  S13  1  0.03060592  0.10614931  0.34195313  1.0
  S  S14  1  0.03060610  0.60614892  0.15804719  1.0
  S  S15  1  0.53060607  0.39385102  0.84195283  1.0
