# generated using pymatgen
data_NaMg2Cl5
_symmetry_space_group_name_H-M   'P 1'
_cell_length_a   9.11991549
_cell_length_b   8.05024726
_cell_length_c   11.57246621
_cell_angle_alpha   90.00000716
_cell_angle_beta   90.00003360
_cell_angle_gamma   89.99999946
_symmetry_Int_Tables_number   1
_chemical_formula_structural   NaMg2Cl5
_chemical_formula_sum   'Na4 Mg8 Cl20'
_cell_volume   849.62240226
_cell_formula_units_Z   4
loop_
 _symmetry_equiv_pos_site_id
 _symmetry_equiv_pos_as_xyz
  1  'x, y, z'
loop_
 _atom_site_type_symbol
 _atom_site_label
 _atom_site_symmetry_multiplicity
 _atom_site_fract_x
 _atom_site_fract_y
 _atom_site_fract_z
 _atom_site_occupancy
  Na  Na0  1  0.99999982  0.22432934  0.49999982  1.0
  Na  Na1  1  0.50000001  0.27566955  0.00000010  1.0
  Na  Na2  1  0.99999984  0.77567064  0.50000000  1.0
  Na  Na3  1  0.49999998  0.72433045  0.99999993  1.0
  Mg  Mg4  1  0.88181071  0.00000002  0.86871303  1.0
  Mg  Mg5  1  0.09598013  0.50000000  0.21365515  1.0
  Mg  Mg6  1  0.59598125  0.00000009  0.28634344  1.0
  Mg  Mg7  1  0.90401972  0.50000002  0.78634660  1.0
  Mg  Mg8  1  0.40401883  0.99999985  0.71365470  1.0
  Mg  Mg9  1  0.61818914  0.50000006  0.36871255  1.0
  Mg  Mg10  1  0.11818964  0.99999995  0.13128722  1.0
  Mg  Mg11  1  0.38181118  0.49999998  0.63128743  1.0
  Cl  Cl12  1  0.11780325  0.49999997  0.61888798  1.0
  Cl  Cl13  1  0.50000011  0.70165371  0.50000026  1.0
  Cl  Cl14  1  0.99999990  0.79834621  0.99999988  1.0
  Cl  Cl15  1  0.49999987  0.29834631  0.49999997  1.0
  Cl  Cl16  1  0.99999993  0.20165380  0.99999995  1.0
  Cl  Cl17  1  0.88219688  0.50000000  0.38111202  1.0
  Cl  Cl18  1  0.38219713  0.00000002  0.11888772  1.0
  Cl  Cl19  1  0.12903370  0.77777761  0.28272270  1.0
  Cl  Cl20  1  0.87096638  0.22222276  0.71727757  1.0
  Cl  Cl21  1  0.37096651  0.27777737  0.78272282  1.0
  Cl  Cl22  1  0.12903376  0.22222226  0.28272278  1.0
  Cl  Cl23  1  0.62903370  0.27777788  0.21727675  1.0
  Cl  Cl24  1  0.87096636  0.77777727  0.71727755  1.0
  Cl  Cl25  1  0.62903350  0.72222214  0.21727686  1.0
  Cl  Cl26  1  0.71734045  0.50000005  0.92694902  1.0
  Cl  Cl27  1  0.37096627  0.72222274  0.78272292  1.0
  Cl  Cl28  1  0.78265959  0.00000006  0.42694819  1.0
  Cl  Cl29  1  0.28265931  0.49999995  0.07305119  1.0
  Cl  Cl30  1  0.21734011  0.99999996  0.57305153  1.0
  Cl  Cl31  1  0.61780303  0.99999998  0.88111238  1.0
