# generated using pymatgen
data_NaPO3
_symmetry_space_group_name_H-M   'P 1'
_cell_length_a   4.30346552
_cell_length_b   5.41031072
_cell_length_c   11.67871631
_cell_angle_alpha   89.97288888
_cell_angle_beta   90.00043834
_cell_angle_gamma   89.99916152
_symmetry_Int_Tables_number   1
_chemical_formula_structural   NaPO3
_chemical_formula_sum   'Na4 P4 O12'
_cell_volume   271.91652149
_cell_formula_units_Z   4
loop_
 _symmetry_equiv_pos_site_id
 _symmetry_equiv_pos_as_xyz
  1  'x, y, z'
loop_
 _atom_site_type_symbol
 _atom_site_label
 _atom_site_symmetry_multiplicity
 _atom_site_fract_x
 _atom_site_fract_y
 _atom_site_fract_z
 _atom_site_occupancy
  Na  Na0  1  0.33739951  0.93510083  0.36000631  1.0
  Na  Na1  1  0.83743064  0.06491988  0.63998669  1.0
  Na  Na2  1  0.66397751  0.43483967  0.13978619  1.0
  Na  Na3  1  0.16392294  0.56516806  0.86022001  1.0
  P  P4  1  0.67578566  0.07800012  0.92190087  1.0
  P  P5  1  0.17573213  0.92197810  0.07813087  1.0
  P  P6  1  0.32380232  0.57816594  0.57811705  1.0
  P  P7  1  0.82374897  0.42184714  0.42190119  1.0
  O  O8  1  0.21737831  0.41622063  0.67417232  1.0
  O  O9  1  0.80840601  0.14504298  0.41305379  1.0
  O  O10  1  0.17542358  0.49857170  0.45432819  1.0
  O  O11  1  0.67542351  0.50135375  0.54566895  1.0
  O  O12  1  0.69399595  0.35463697  0.91320121  1.0
  O  O13  1  0.82331848  0.99645527  0.04556472  1.0
  O  O14  1  0.71739971  0.58385446  0.32582261  1.0
  O  O15  1  0.78054225  0.91551628  0.82584298  1.0
  O  O16  1  0.30839316  0.85492057  0.58691126  1.0
  O  O17  1  0.19405355  0.64540935  0.08682505  1.0
  O  O18  1  0.28056040  0.08449577  0.17412740  1.0
  O  O19  1  0.32330540  0.00350254  0.95443234  1.0
