# generated using pymatgen
data_NaSiBiO4
_symmetry_space_group_name_H-M   'P 1'
_cell_length_a   6.11843803
_cell_length_b   7.17010695
_cell_length_c   9.51288626
_cell_angle_alpha   89.99999966
_cell_angle_beta   90.00000169
_cell_angle_gamma   90.00000103
_symmetry_Int_Tables_number   1
_chemical_formula_structural   NaSiBiO4
_chemical_formula_sum   'Na4 Si4 Bi4 O16'
_cell_volume   417.32894126
_cell_formula_units_Z   4
loop_
 _symmetry_equiv_pos_site_id
 _symmetry_equiv_pos_as_xyz
  1  'x, y, z'
loop_
 _atom_site_type_symbol
 _atom_site_label
 _atom_site_symmetry_multiplicity
 _atom_site_fract_x
 _atom_site_fract_y
 _atom_site_fract_z
 _atom_site_occupancy
  Na  Na0  1  0.00000000  0.00000000  0.00000000  1.0
  Na  Na1  1  0.00000000  0.50000000  0.00000000  1.0
  Na  Na2  1  0.49999999  0.50000001  0.50000001  1.0
  Na  Na3  1  0.50000000  0.00000000  0.50000000  1.0
  Si  Si4  1  0.94820417  0.75000000  0.67119012  1.0
  Si  Si5  1  0.55179583  0.75000000  0.17119013  1.0
  Si  Si6  1  0.44820417  0.25000000  0.82880987  1.0
  Si  Si7  1  0.05179583  0.24999998  0.32880987  1.0
  Bi  Bi8  1  0.88303441  0.25000001  0.64994440  1.0
  Bi  Bi9  1  0.61696559  0.25000000  0.14994440  1.0
  Bi  Bi10  1  0.38303441  0.75000000  0.85005561  1.0
  Bi  Bi11  1  0.11696558  0.75000000  0.35005560  1.0
  O  O12  1  0.96831311  0.25000000  0.16215665  1.0
  O  O13  1  0.68261334  0.25000001  0.92186965  1.0
  O  O14  1  0.69734787  0.93514719  0.13686657  1.0
  O  O15  1  0.69734790  0.56485282  0.13686658  1.0
  O  O16  1  0.80265210  0.93514719  0.63686657  1.0
  O  O17  1  0.80265213  0.56485282  0.63686656  1.0
  O  O18  1  0.81738667  0.24999998  0.42186965  1.0
  O  O19  1  0.53168689  0.25000001  0.66215664  1.0
  O  O20  1  0.46831311  0.74999999  0.33784336  1.0
  O  O21  1  0.18261333  0.75000002  0.57813035  1.0
  O  O22  1  0.30265210  0.43514719  0.86313342  1.0
  O  O23  1  0.30265213  0.06485281  0.86313344  1.0
  O  O24  1  0.19734789  0.06485282  0.36313343  1.0
  O  O25  1  0.19734788  0.43514718  0.36313345  1.0
  O  O26  1  0.03168689  0.75000001  0.83784335  1.0
  O  O27  1  0.31738667  0.74999998  0.07813035  1.0
