# generated using pymatgen
data_NaSiBiO4
_symmetry_space_group_name_H-M   'P 1'
_cell_length_a   5.07706983
_cell_length_b   7.32785112
_cell_length_c   11.96959380
_cell_angle_alpha   89.99999909
_cell_angle_beta   90.00000016
_cell_angle_gamma   90.00000108
_symmetry_Int_Tables_number   1
_chemical_formula_structural   NaSiBiO4
_chemical_formula_sum   'Na4 Si4 Bi4 O16'
_cell_volume   445.31690946
_cell_formula_units_Z   4
loop_
 _symmetry_equiv_pos_site_id
 _symmetry_equiv_pos_as_xyz
  1  'x, y, z'
loop_
 _atom_site_type_symbol
 _atom_site_label
 _atom_site_symmetry_multiplicity
 _atom_site_fract_x
 _atom_site_fract_y
 _atom_site_fract_z
 _atom_site_occupancy
  Na  Na0  1  0.22008788  0.99014593  0.16396490  1.0
  Na  Na1  1  0.72008786  0.49014594  0.33603532  1.0
  Na  Na2  1  0.22008787  0.50985408  0.66396479  1.0
  Na  Na3  1  0.72008789  0.00985405  0.83603520  1.0
  Si  Si4  1  0.74964303  0.75342697  0.07461909  1.0
  Si  Si5  1  0.24964302  0.25342697  0.42538094  1.0
  Si  Si6  1  0.74964305  0.74657304  0.57461905  1.0
  Si  Si7  1  0.24964305  0.24657302  0.92538089  1.0
  Bi  Bi8  1  0.72247135  0.26554752  0.11107640  1.0
  Bi  Bi9  1  0.22247135  0.76554753  0.38892356  1.0
  Bi  Bi10  1  0.72247134  0.23445246  0.61107642  1.0
  Bi  Bi11  1  0.22247132  0.73445250  0.88892356  1.0
  O  O12  1  0.12558230  0.24849963  0.05528634  1.0
  O  O13  1  0.07648163  0.75315192  0.05362301  1.0
  O  O14  1  0.67313801  0.57194338  0.14667795  1.0
  O  O15  1  0.67495384  0.94363797  0.13872892  1.0
  O  O16  1  0.17495368  0.44363800  0.36127117  1.0
  O  O17  1  0.17313802  0.07194346  0.35332203  1.0
  O  O18  1  0.57648163  0.25315192  0.44637697  1.0
  O  O19  1  0.62558234  0.74849966  0.44471359  1.0
  O  O20  1  0.12558238  0.25150029  0.55528640  1.0
  O  O21  1  0.07648167  0.74684814  0.55362300  1.0
  O  O22  1  0.67313797  0.92805658  0.64667793  1.0
  O  O23  1  0.67495381  0.55636201  0.63872885  1.0
  O  O24  1  0.17495376  0.05636201  0.86127109  1.0
  O  O25  1  0.17313807  0.42805659  0.85332202  1.0
  O  O26  1  0.57648166  0.24684804  0.94637695  1.0
  O  O27  1  0.62558222  0.75150041  0.94471365  1.0
