# generated using pymatgen
data_NaSn2Br5
_symmetry_space_group_name_H-M   'P 1'
_cell_length_a   9.40679500
_cell_length_b   9.20193670
_cell_length_c   12.73362621
_cell_angle_alpha   90.00000127
_cell_angle_beta   90.00009421
_cell_angle_gamma   89.99999846
_symmetry_Int_Tables_number   1
_chemical_formula_structural   NaSn2Br5
_chemical_formula_sum   'Na4 Sn8 Br20'
_cell_volume   1102.23200753
_cell_formula_units_Z   4
loop_
 _symmetry_equiv_pos_site_id
 _symmetry_equiv_pos_as_xyz
  1  'x, y, z'
loop_
 _atom_site_type_symbol
 _atom_site_label
 _atom_site_symmetry_multiplicity
 _atom_site_fract_x
 _atom_site_fract_y
 _atom_site_fract_z
 _atom_site_occupancy
  Na  Na0  1  0.00000002  0.25056414  0.49999964  1.0
  Na  Na1  1  0.49999986  0.24943576  0.00000039  1.0
  Na  Na2  1  0.00000015  0.74943586  0.50000042  1.0
  Na  Na3  1  0.49999995  0.75056426  0.99999962  1.0
  Sn  Sn4  1  0.93480312  0.00000006  0.83594570  1.0
  Sn  Sn5  1  0.06211696  0.50000011  0.17363744  1.0
  Sn  Sn6  1  0.56211689  0.99999988  0.32636168  1.0
  Sn  Sn7  1  0.93788282  0.49999989  0.82636243  1.0
  Sn  Sn8  1  0.43788343  0.00000011  0.67363818  1.0
  Sn  Sn9  1  0.56519723  0.50000009  0.33594607  1.0
  Sn  Sn10  1  0.06519690  0.99999993  0.16405438  1.0
  Sn  Sn11  1  0.43480270  0.49999992  0.66405401  1.0
  Br  Br12  1  0.15763180  0.49999985  0.60363016  1.0
  Br  Br13  1  0.49999997  0.71008379  0.50000002  1.0
  Br  Br14  1  0.99999998  0.78991650  0.00000000  1.0
  Br  Br15  1  0.49999997  0.28991623  0.50000001  1.0
  Br  Br16  1  0.00000004  0.21008349  0.00000003  1.0
  Br  Br17  1  0.84236812  0.50000014  0.39636994  1.0
  Br  Br18  1  0.34236834  0.99999985  0.10363022  1.0
  Br  Br19  1  0.16481149  0.72615912  0.29641668  1.0
  Br  Br20  1  0.83518828  0.27384087  0.70358330  1.0
  Br  Br21  1  0.33518832  0.22615929  0.79641682  1.0
  Br  Br22  1  0.16481173  0.27384097  0.29641651  1.0
  Br  Br23  1  0.66481211  0.22615917  0.20358326  1.0
  Br  Br24  1  0.83518805  0.72615903  0.70358343  1.0
  Br  Br25  1  0.66481191  0.77384071  0.20358313  1.0
  Br  Br26  1  0.68409351  0.49999987  0.93438124  1.0
  Br  Br27  1  0.33518811  0.77384083  0.79641669  1.0
  Br  Br28  1  0.81590622  0.99999988  0.43438105  1.0
  Br  Br29  1  0.31590626  0.50000014  0.06561875  1.0
  Br  Br30  1  0.18409409  0.00000013  0.56561893  1.0
  Br  Br31  1  0.65763170  0.00000014  0.89636987  1.0
