# generated using pymatgen
data_NaSn2F5
_symmetry_space_group_name_H-M   'P 1'
_cell_length_a   7.07043861
_cell_length_b   7.61509657
_cell_length_c   10.20713643
_cell_angle_alpha   90.00000154
_cell_angle_beta   90.00000157
_cell_angle_gamma   89.99999852
_symmetry_Int_Tables_number   1
_chemical_formula_structural   NaSn2F5
_chemical_formula_sum   'Na4 Sn8 F20'
_cell_volume   549.57338282
_cell_formula_units_Z   4
loop_
 _symmetry_equiv_pos_site_id
 _symmetry_equiv_pos_as_xyz
  1  'x, y, z'
loop_
 _atom_site_type_symbol
 _atom_site_label
 _atom_site_symmetry_multiplicity
 _atom_site_fract_x
 _atom_site_fract_y
 _atom_site_fract_z
 _atom_site_occupancy
  Na  Na0  1  0.00000000  0.25320224  0.49999994  1.0
  Na  Na1  1  0.50000002  0.24679776  0.00000006  1.0
  Na  Na2  1  0.00000001  0.74679776  0.50000006  1.0
  Na  Na3  1  0.49999999  0.75320224  0.99999994  1.0
  Sn  Sn4  1  0.94215586  0.00000000  0.82617449  1.0
  Sn  Sn5  1  0.05003249  0.50000002  0.16772302  1.0
  Sn  Sn6  1  0.55003249  0.99999999  0.33227701  1.0
  Sn  Sn7  1  0.94996751  0.49999998  0.83227698  1.0
  Sn  Sn8  1  0.44996751  0.00000001  0.66772299  1.0
  Sn  Sn9  1  0.55784414  0.50000001  0.32617449  1.0
  Sn  Sn10  1  0.05784414  0.00000001  0.17382552  1.0
  Sn  Sn11  1  0.44215586  0.49999999  0.67382550  1.0
  F  F12  1  0.15995866  0.49999998  0.59992350  1.0
  F  F13  1  0.49999998  0.67849639  0.49999999  1.0
  F  F14  1  0.00000001  0.82150363  0.00000000  1.0
  F  F15  1  0.50000001  0.32150361  0.50000000  1.0
  F  F16  1  0.99999998  0.17849637  0.00000000  1.0
  F  F17  1  0.84004133  0.50000002  0.40007651  1.0
  F  F18  1  0.34004132  0.00000000  0.09992351  1.0
  F  F19  1  0.16134270  0.70585009  0.28746754  1.0
  F  F20  1  0.83865731  0.29414991  0.71253247  1.0
  F  F21  1  0.33865730  0.20585011  0.78746749  1.0
  F  F22  1  0.16134269  0.29414991  0.28746750  1.0
  F  F23  1  0.66134273  0.20585008  0.21253254  1.0
  F  F24  1  0.83865731  0.70585009  0.71253250  1.0
  F  F25  1  0.66134270  0.79414989  0.21253251  1.0
  F  F26  1  0.68037914  0.49999998  0.92602743  1.0
  F  F27  1  0.33865728  0.79414991  0.78746746  1.0
  F  F28  1  0.81962084  0.99999996  0.42602747  1.0
  F  F29  1  0.31962087  0.50000003  0.07397257  1.0
  F  F30  1  0.18037916  0.00000003  0.57397254  1.0
  F  F31  1  0.65995868  0.00000000  0.90007649  1.0
