# generated using pymatgen
data_NaSn2I5
_symmetry_space_group_name_H-M   'P 1'
_cell_length_a   10.50953120
_cell_length_b   9.68286202
_cell_length_c   13.60836628
_cell_angle_alpha   90.00000434
_cell_angle_beta   90.00003849
_cell_angle_gamma   89.99999996
_symmetry_Int_Tables_number   1
_chemical_formula_structural   NaSn2I5
_chemical_formula_sum   'Na4 Sn8 I20'
_cell_volume   1384.81920309
_cell_formula_units_Z   4
loop_
 _symmetry_equiv_pos_site_id
 _symmetry_equiv_pos_as_xyz
  1  'x, y, z'
loop_
 _atom_site_type_symbol
 _atom_site_label
 _atom_site_symmetry_multiplicity
 _atom_site_fract_x
 _atom_site_fract_y
 _atom_site_fract_z
 _atom_site_occupancy
  Na  Na0  1  0.99999953  0.24878903  0.49999998  1.0
  Na  Na1  1  0.49999972  0.25121096  0.99999992  1.0
  Na  Na2  1  0.99999980  0.75121098  0.50000007  1.0
  Na  Na3  1  0.49999995  0.74878903  0.99999983  1.0
  Sn  Sn4  1  0.92241430  0.00000002  0.83958977  1.0
  Sn  Sn5  1  0.07018678  0.50000010  0.17265496  1.0
  Sn  Sn6  1  0.57018663  0.99999989  0.32734479  1.0
  Sn  Sn7  1  0.92981351  0.49999989  0.82734568  1.0
  Sn  Sn8  1  0.42981331  0.00000011  0.67265456  1.0
  Sn  Sn9  1  0.57758540  0.50000002  0.33958901  1.0
  Sn  Sn10  1  0.07758551  0.99999998  0.16041075  1.0
  Sn  Sn11  1  0.42241438  0.49999998  0.66041051  1.0
  I  I12  1  0.15466079  0.49999980  0.60211732  1.0
  I  I13  1  0.49999986  0.71820293  0.49999972  1.0
  I  I14  1  0.99999993  0.78179659  0.00000034  1.0
  I  I15  1  0.49999998  0.28179707  0.49999969  1.0
  I  I16  1  0.00000004  0.21820342  0.00000037  1.0
  I  I17  1  0.84533897  0.50000020  0.39788201  1.0
  I  I18  1  0.34533947  0.99999982  0.10211819  1.0
  I  I19  1  0.16467142  0.73140292  0.29898090  1.0
  I  I20  1  0.83532892  0.26859698  0.70101963  1.0
  I  I21  1  0.33532863  0.23140274  0.79898050  1.0
  I  I22  1  0.16467159  0.26859729  0.29898073  1.0
  I  I23  1  0.66467165  0.23140251  0.20101920  1.0
  I  I24  1  0.83532875  0.73140281  0.70101981  1.0
  I  I25  1  0.66467147  0.76859728  0.20101901  1.0
  I  I26  1  0.68502533  0.49999978  0.93631044  1.0
  I  I27  1  0.33532846  0.76859747  0.79898032  1.0
  I  I28  1  0.81497511  0.99999978  0.43630960  1.0
  I  I29  1  0.31497524  0.50000021  0.06369016  1.0
  I  I30  1  0.18502514  0.00000022  0.56368967  1.0
  I  I31  1  0.65466042  0.00000019  0.89788254  1.0
