# generated using pymatgen
data_NaVO3
_symmetry_space_group_name_H-M   'P 1'
_cell_length_a   5.16579858
_cell_length_b   5.77419603
_cell_length_c   9.38545867
_cell_angle_alpha   89.99984539
_cell_angle_beta   89.99985988
_cell_angle_gamma   89.99999698
_symmetry_Int_Tables_number   1
_chemical_formula_structural   NaVO3
_chemical_formula_sum   'Na4 V4 O12'
_cell_volume   279.95259269
_cell_formula_units_Z   4
loop_
 _symmetry_equiv_pos_site_id
 _symmetry_equiv_pos_as_xyz
  1  'x, y, z'
loop_
 _atom_site_type_symbol
 _atom_site_label
 _atom_site_symmetry_multiplicity
 _atom_site_fract_x
 _atom_site_fract_y
 _atom_site_fract_z
 _atom_site_occupancy
  Na  Na0  1  0.03892592  0.74999986  0.88565132  1.0
  Na  Na1  1  0.03893290  0.25000008  0.61434862  1.0
  Na  Na2  1  0.96106359  0.25000008  0.11434442  1.0
  Na  Na3  1  0.96106676  0.74999986  0.38565105  1.0
  V  V4  1  0.49108376  0.74999764  0.65307388  1.0
  V  V5  1  0.49109004  0.25000236  0.84692892  1.0
  V  V6  1  0.50891923  0.25000239  0.34692328  1.0
  V  V7  1  0.50891536  0.74999764  0.15307097  1.0
  O  O8  1  0.64235827  0.49998619  0.25000107  1.0
  O  O9  1  0.35763337  0.99997894  0.74998992  1.0
  O  O10  1  0.35763442  0.50002109  0.74998991  1.0
  O  O11  1  0.64235930  0.00001389  0.25000108  1.0
  O  O12  1  0.36549775  0.75000007  0.48954171  1.0
  O  O13  1  0.36547700  0.24999992  0.01048426  1.0
  O  O14  1  0.63451144  0.24999991  0.51046787  1.0
  O  O15  1  0.63450300  0.75000008  0.98952964  1.0
  O  O16  1  0.18328294  0.75000009  0.14342099  1.0
  O  O17  1  0.18326139  0.24999996  0.35658059  1.0
  O  O18  1  0.81677113  0.24999990  0.85658158  1.0
  O  O19  1  0.81671242  0.75000007  0.64341894  1.0
