# generated using pymatgen
data_NbInO4
_symmetry_space_group_name_H-M   'P 1'
_cell_length_a   5.43996987
_cell_length_b   5.43996991
_cell_length_c   6.75417784
_cell_angle_alpha   90.00002872
_cell_angle_beta   89.99997236
_cell_angle_gamma   112.15253871
_symmetry_Int_Tables_number   1
_chemical_formula_structural   NbInO4
_chemical_formula_sum   'Nb2 In2 O8'
_cell_volume   185.12386449
_cell_formula_units_Z   2
loop_
 _symmetry_equiv_pos_site_id
 _symmetry_equiv_pos_as_xyz
  1  'x, y, z'
loop_
 _atom_site_type_symbol
 _atom_site_label
 _atom_site_symmetry_multiplicity
 _atom_site_fract_x
 _atom_site_fract_y
 _atom_site_fract_z
 _atom_site_occupancy
  Nb  Nb0  1  0.64503847  0.35496154  0.24999997  1.0
  Nb  Nb1  1  0.35496165  0.64503834  0.75000021  1.0
  In  In2  1  0.99999999  0.00000000  0.50000001  1.0
  In  In3  1  0.00000000  0.00000001  0.99999997  1.0
  O  O4  1  0.23562628  0.76437385  0.53153026  1.0
  O  O5  1  0.76437359  0.23562630  0.03153051  1.0
  O  O6  1  0.76437369  0.23562626  0.46846962  1.0
  O  O7  1  0.23562635  0.76437368  0.96846947  1.0
  O  O8  1  0.73943221  0.78602349  0.74999996  1.0
  O  O9  1  0.26056777  0.21397652  0.25000003  1.0
  O  O10  1  0.78602372  0.73943226  0.25000001  1.0
  O  O11  1  0.21397628  0.26056775  0.74999998  1.0
