# generated using pymatgen
data_Nd3Si6N11
_symmetry_space_group_name_H-M   'P 1'
_cell_length_a   10.13437013
_cell_length_b   10.13437012
_cell_length_c   4.89563673
_cell_angle_alpha   90.00000000
_cell_angle_beta   89.99999971
_cell_angle_gamma   89.99999989
_symmetry_Int_Tables_number   1
_chemical_formula_structural   Nd3Si6N11
_chemical_formula_sum   'Nd6 Si12 N22'
_cell_volume   502.80861173
_cell_formula_units_Z   2
loop_
 _symmetry_equiv_pos_site_id
 _symmetry_equiv_pos_as_xyz
  1  'x, y, z'
loop_
 _atom_site_type_symbol
 _atom_site_label
 _atom_site_symmetry_multiplicity
 _atom_site_fract_x
 _atom_site_fract_y
 _atom_site_fract_z
 _atom_site_occupancy
  Nd  Nd0  1  0.50000001  0.50000000  0.98639333  1.0
  Nd  Nd1  1  0.99999999  0.00000000  0.98639335  1.0
  Nd  Nd2  1  0.81775230  0.31775231  0.00077353  1.0
  Nd  Nd3  1  0.31775231  0.18224769  0.00077352  1.0
  Nd  Nd4  1  0.68224770  0.81775231  0.00077351  1.0
  Nd  Nd5  1  0.18224769  0.68224769  0.00077356  1.0
  Si  Si6  1  0.38241783  0.88241783  0.04365967  1.0
  Si  Si7  1  0.88241778  0.61758221  0.04365967  1.0
  Si  Si8  1  0.11758217  0.38241782  0.04365967  1.0
  Si  Si9  1  0.61758221  0.11758221  0.04365966  1.0
  Si  Si10  1  0.70865928  0.57944239  0.53222836  1.0
  Si  Si11  1  0.29134073  0.42055760  0.53222836  1.0
  Si  Si12  1  0.42055762  0.70865928  0.53222836  1.0
  Si  Si13  1  0.57944240  0.29134072  0.53222835  1.0
  Si  Si14  1  0.92055760  0.79134072  0.53222835  1.0
  Si  Si15  1  0.79134072  0.07944239  0.53222834  1.0
  Si  Si16  1  0.20865928  0.92055761  0.53222836  1.0
  Si  Si17  1  0.07944239  0.20865926  0.53222835  1.0
  N  N18  1  0.49999996  0.99999997  0.07185603  1.0
  N  N19  1  0.00000004  0.49999996  0.07185606  1.0
  N  N20  1  0.34607167  0.84607166  0.69759819  1.0
  N  N21  1  0.84607166  0.65392834  0.69759821  1.0
  N  N22  1  0.15392834  0.34607167  0.69759817  1.0
  N  N23  1  0.65392835  0.15392835  0.69759820  1.0
  N  N24  1  0.72869880  0.57670859  0.17929399  1.0
  N  N25  1  0.27130121  0.42329141  0.17929399  1.0
  N  N26  1  0.42329142  0.72869879  0.17929400  1.0
  N  N27  1  0.57670858  0.27130120  0.17929400  1.0
  N  N28  1  0.92329141  0.77130121  0.17929399  1.0
  N  N29  1  0.77130121  0.07670858  0.17929399  1.0
  N  N30  1  0.22869880  0.92329142  0.17929399  1.0
  N  N31  1  0.07670859  0.22869880  0.17929398  1.0
  N  N32  1  0.57927201  0.67974472  0.64503537  1.0
  N  N33  1  0.42072796  0.32025529  0.64503536  1.0
  N  N34  1  0.32025528  0.57927201  0.64503536  1.0
  N  N35  1  0.67974471  0.42072799  0.64503536  1.0
  N  N36  1  0.17974472  0.07927202  0.64503537  1.0
  N  N37  1  0.07927203  0.82025527  0.64503536  1.0
  N  N38  1  0.92072800  0.17974472  0.64503534  1.0
  N  N39  1  0.82025528  0.92072798  0.64503534  1.0
