# generated using pymatgen
data_NdVO4
_symmetry_space_group_name_H-M   'P 1'
_cell_length_a   6.17997201
_cell_length_b   6.17997198
_cell_length_c   6.17997058
_cell_angle_alpha   106.07277228
_cell_angle_beta   106.07277119
_cell_angle_gamma   116.50561124
_symmetry_Int_Tables_number   1
_chemical_formula_structural   NdVO4
_chemical_formula_sum   'Nd2 V2 O8'
_cell_volume   179.61431584
_cell_formula_units_Z   2
loop_
 _symmetry_equiv_pos_site_id
 _symmetry_equiv_pos_as_xyz
  1  'x, y, z'
loop_
 _atom_site_type_symbol
 _atom_site_label
 _atom_site_symmetry_multiplicity
 _atom_site_fract_x
 _atom_site_fract_y
 _atom_site_fract_z
 _atom_site_occupancy
  Nd  Nd0  1  0.87499991  0.12500009  0.74999999  1.0
  Nd  Nd1  1  0.12500009  0.87499991  0.25000000  1.0
  V  V2  1  0.62499968  0.37500034  0.25000000  1.0
  V  V3  1  0.37500033  0.62499966  0.75000000  1.0
  O  O4  1  0.79609645  0.36566966  0.06957251  1.0
  O  O5  1  0.79609662  0.72652430  0.43042721  1.0
  O  O6  1  0.63433034  0.20390354  0.43042749  1.0
  O  O7  1  0.20390324  0.27347509  0.56957230  1.0
  O  O8  1  0.20390340  0.63433068  0.93042798  1.0
  O  O9  1  0.27347571  0.20390340  0.06957279  1.0
  O  O10  1  0.72652492  0.79609675  0.93042769  1.0
  O  O11  1  0.36566931  0.79609658  0.56957203  1.0
