# generated using pymatgen
data_Ni2As2O7
_symmetry_space_group_name_H-M   'P 1'
_cell_length_a   4.82794791
_cell_length_b   5.41186041
_cell_length_c   5.41193647
_cell_angle_alpha   106.66805830
_cell_angle_beta   96.91698413
_cell_angle_gamma   96.91710438
_symmetry_Int_Tables_number   1
_chemical_formula_structural   Ni2As2O7
_chemical_formula_sum   'Ni2 As2 O7'
_cell_volume   132.67909343
_cell_formula_units_Z   1
loop_
 _symmetry_equiv_pos_site_id
 _symmetry_equiv_pos_as_xyz
  1  'x, y, z'
loop_
 _atom_site_type_symbol
 _atom_site_label
 _atom_site_symmetry_multiplicity
 _atom_site_fract_x
 _atom_site_fract_y
 _atom_site_fract_z
 _atom_site_occupancy
  Ni  Ni0  1  0.49997619  0.68797324  0.31199015  1.0
  Ni  Ni1  1  0.50002362  0.31202677  0.68800984  1.0
  As  As2  1  0.10284510  0.75839659  0.75840128  1.0
  As  As3  1  0.89715468  0.24160339  0.24159869  1.0
  O  O4  1  0.29012623  0.92955341  0.59418713  1.0
  O  O5  1  0.70990049  0.40584888  0.07045302  1.0
  O  O6  1  0.70987359  0.07044664  0.40581286  1.0
  O  O7  1  0.29009941  0.59415112  0.92954698  1.0
  O  O8  1  0.99999993  0.99999996  0.00000007  1.0
  O  O9  1  0.77245775  0.59271510  0.59270006  1.0
  O  O10  1  0.22754202  0.40728490  0.40729992  1.0
