# generated using pymatgen
data_Pr2TiO5
_symmetry_space_group_name_H-M   'P 1'
_cell_length_a   6.20811162
_cell_length_b   6.20811128
_cell_length_c   10.81189924
_cell_angle_alpha   89.99999782
_cell_angle_beta   90.00000242
_cell_angle_gamma   140.70964526
_symmetry_Int_Tables_number   1
_chemical_formula_structural   Pr2TiO5
_chemical_formula_sum   'Pr4 Ti2 O10'
_cell_volume   263.87400305
_cell_formula_units_Z   2
loop_
 _symmetry_equiv_pos_site_id
 _symmetry_equiv_pos_as_xyz
  1  'x, y, z'
loop_
 _atom_site_type_symbol
 _atom_site_label
 _atom_site_symmetry_multiplicity
 _atom_site_fract_x
 _atom_site_fract_y
 _atom_site_fract_z
 _atom_site_occupancy
  Pr  Pr0  1  0.14284476  0.85715521  0.92628574  1.0
  Pr  Pr1  1  0.14284473  0.85715518  0.57371425  1.0
  Pr  Pr2  1  0.85715524  0.14284485  0.07371426  1.0
  Pr  Pr3  1  0.85715523  0.14284481  0.42628574  1.0
  Ti  Ti4  1  0.16348645  0.83651294  0.24999999  1.0
  Ti  Ti5  1  0.83651355  0.16348699  0.75000001  1.0
  O  O6  1  0.05215982  0.94784014  0.37437082  1.0
  O  O7  1  0.05215980  0.94784012  0.12562918  1.0
  O  O8  1  0.71945690  0.28054304  0.90100834  1.0
  O  O9  1  0.71945687  0.28054300  0.59899165  1.0
  O  O10  1  0.28924487  0.71075473  0.74999999  1.0
  O  O11  1  0.71075515  0.28924530  0.25000000  1.0
  O  O12  1  0.28054310  0.71945703  0.09899167  1.0
  O  O13  1  0.28054309  0.71945699  0.40100832  1.0
  O  O14  1  0.94784021  0.05215982  0.62562915  1.0
  O  O15  1  0.94784021  0.05215984  0.87437087  1.0
