# generated using pymatgen
data_Pr3Si6N11
_symmetry_space_group_name_H-M   'P 1'
_cell_length_a   10.17581323
_cell_length_b   10.17581308
_cell_length_c   4.89817530
_cell_angle_alpha   89.99937305
_cell_angle_beta   89.99937581
_cell_angle_gamma   89.99856060
_symmetry_Int_Tables_number   1
_chemical_formula_structural   Pr3Si6N11
_chemical_formula_sum   'Pr6 Si12 N22'
_cell_volume   507.19220674
_cell_formula_units_Z   2
loop_
 _symmetry_equiv_pos_site_id
 _symmetry_equiv_pos_as_xyz
  1  'x, y, z'
loop_
 _atom_site_type_symbol
 _atom_site_label
 _atom_site_symmetry_multiplicity
 _atom_site_fract_x
 _atom_site_fract_y
 _atom_site_fract_z
 _atom_site_occupancy
  Pr  Pr0  1  0.50000112  0.49999805  0.98935508  1.0
  Pr  Pr1  1  0.99999806  0.00000115  0.98935509  1.0
  Pr  Pr2  1  0.81796263  0.31796261  0.00404510  1.0
  Pr  Pr3  1  0.31798797  0.18200901  0.00408202  1.0
  Pr  Pr4  1  0.68200898  0.81798804  0.00408203  1.0
  Pr  Pr5  1  0.18203597  0.68203594  0.00406235  1.0
  Si  Si6  1  0.38273079  0.88273077  0.04313433  1.0
  Si  Si7  1  0.88272694  0.61727347  0.04311727  1.0
  Si  Si8  1  0.11727365  0.38272676  0.04311725  1.0
  Si  Si9  1  0.61726935  0.11726933  0.04313470  1.0
  Si  Si10  1  0.70873321  0.57932444  0.53231024  1.0
  Si  Si11  1  0.29126325  0.42067607  0.53231798  1.0
  Si  Si12  1  0.42067466  0.70876701  0.53227491  1.0
  Si  Si13  1  0.57932612  0.29123013  0.53228514  1.0
  Si  Si14  1  0.92067608  0.79126330  0.53231799  1.0
  Si  Si15  1  0.79123013  0.07932616  0.53228512  1.0
  Si  Si16  1  0.20876702  0.92067469  0.53227491  1.0
  Si  Si17  1  0.07932446  0.20873325  0.53231027  1.0
  N  N18  1  0.49999723  0.99999721  0.06993196  1.0
  N  N19  1  0.00001075  0.50001103  0.06989871  1.0
  N  N20  1  0.34577158  0.84577159  0.69754558  1.0
  N  N21  1  0.84579495  0.65420212  0.69750898  1.0
  N  N22  1  0.15420213  0.34579495  0.69750900  1.0
  N  N23  1  0.65422821  0.15422821  0.69754017  1.0
  N  N24  1  0.72998132  0.57608711  0.17975619  1.0
  N  N25  1  0.27001244  0.42391766  0.17976803  1.0
  N  N26  1  0.42392650  0.73002503  0.17979268  1.0
  N  N27  1  0.57607710  0.26997509  0.17979656  1.0
  N  N28  1  0.92391764  0.77001246  0.17976797  1.0
  N  N29  1  0.76997510  0.07607709  0.17979652  1.0
  N  N30  1  0.23002504  0.92392647  0.17979271  1.0
  N  N31  1  0.07608710  0.22998134  0.17975624  1.0
  N  N32  1  0.57921504  0.67927719  0.64289890  1.0
  N  N33  1  0.42078556  0.32072667  0.64290605  1.0
  N  N34  1  0.32072469  0.57922541  0.64286541  1.0
  N  N35  1  0.67927413  0.42077388  0.64286105  1.0
  N  N36  1  0.17927720  0.07921501  0.64289892  1.0
  N  N37  1  0.07922538  0.82072467  0.64286542  1.0
  N  N38  1  0.92077386  0.17927410  0.64286108  1.0
  N  N39  1  0.82072668  0.92078552  0.64290601  1.0
