# generated using pymatgen
data_PrAsO4
_symmetry_space_group_name_H-M   'P 1'
_cell_length_a   4.79755753
_cell_length_b   5.35456786
_cell_length_c   12.94646224
_cell_angle_alpha   71.30690882
_cell_angle_beta   90.00005267
_cell_angle_gamma   90.00003052
_symmetry_Int_Tables_number   1
_chemical_formula_structural   PrAsO4
_chemical_formula_sum   'Pr4 As4 O16'
_cell_volume   315.03575796
_cell_formula_units_Z   4
loop_
 _symmetry_equiv_pos_site_id
 _symmetry_equiv_pos_as_xyz
  1  'x, y, z'
loop_
 _atom_site_type_symbol
 _atom_site_label
 _atom_site_symmetry_multiplicity
 _atom_site_fract_x
 _atom_site_fract_y
 _atom_site_fract_z
 _atom_site_occupancy
  Pr  Pr0  1  0.83752281  0.65155307  0.33907099  1.0
  Pr  Pr1  1  0.66247779  0.65155117  0.83907098  1.0
  Pr  Pr2  1  0.16247720  0.34844703  0.66092896  1.0
  Pr  Pr3  1  0.33752221  0.34844874  0.16092907  1.0
  As  As4  1  0.75429677  0.91006969  0.06768892  1.0
  As  As5  1  0.74570348  0.91006798  0.56768894  1.0
  As  As6  1  0.24570324  0.08993034  0.93231129  1.0
  As  As7  1  0.25429649  0.08993199  0.43231086  1.0
  O  O8  1  0.44170420  0.76620420  0.02013178  1.0
  O  O9  1  0.05829420  0.76620308  0.52013224  1.0
  O  O10  1  0.55829581  0.23379584  0.97986816  1.0
  O  O11  1  0.94170575  0.23379689  0.47986781  1.0
  O  O12  1  0.61320637  0.96881037  0.18534495  1.0
  O  O13  1  0.88679521  0.96881062  0.68534440  1.0
  O  O14  1  0.38679372  0.03118959  0.81465498  1.0
  O  O15  1  0.11320485  0.03118942  0.31465567  1.0
  O  O16  1  0.06949021  0.11508307  0.06109351  1.0
  O  O17  1  0.43051109  0.11508262  0.56109357  1.0
  O  O18  1  0.93050981  0.88491690  0.93890643  1.0
  O  O19  1  0.56948886  0.88491740  0.43890651  1.0
  O  O20  1  0.86901826  0.58502015  0.15556123  1.0
  O  O21  1  0.63098090  0.58502000  0.65556230  1.0
  O  O22  1  0.13098172  0.41497990  0.84443874  1.0
  O  O23  1  0.36901906  0.41497995  0.34443773  1.0
