# generated using pymatgen
data_Rb2AgBr3
_symmetry_space_group_name_H-M   'P 1'
_cell_length_a   4.71833309
_cell_length_b   9.83985446
_cell_length_c   19.11119711
_cell_angle_alpha   89.99999826
_cell_angle_beta   89.99999952
_cell_angle_gamma   90.00000000
_symmetry_Int_Tables_number   1
_chemical_formula_structural   Rb2AgBr3
_chemical_formula_sum   'Rb8 Ag4 Br12'
_cell_volume   887.28913436
_cell_formula_units_Z   4
loop_
 _symmetry_equiv_pos_site_id
 _symmetry_equiv_pos_as_xyz
  1  'x, y, z'
loop_
 _atom_site_type_symbol
 _atom_site_label
 _atom_site_symmetry_multiplicity
 _atom_site_fract_x
 _atom_site_fract_y
 _atom_site_fract_z
 _atom_site_occupancy
  Rb  Rb0  1  0.75000001  0.57979539  0.21356283  1.0
  Rb  Rb1  1  0.74999998  0.24196695  0.54235418  1.0
  Rb  Rb2  1  0.25000001  0.25803294  0.04235420  1.0
  Rb  Rb3  1  0.75000001  0.74196707  0.95764580  1.0
  Rb  Rb4  1  0.75000000  0.07979540  0.28643718  1.0
  Rb  Rb5  1  0.24999999  0.92020485  0.71356266  1.0
  Rb  Rb6  1  0.25000000  0.42020462  0.78643722  1.0
  Rb  Rb7  1  0.24999999  0.75803293  0.45764582  1.0
  Ag  Ag8  1  0.25000000  0.37544303  0.36772355  1.0
  Ag  Ag9  1  0.75000000  0.62455695  0.63227646  1.0
  Ag  Ag10  1  0.25000000  0.87544303  0.13227646  1.0
  Ag  Ag11  1  0.75000000  0.12455695  0.86772355  1.0
  Br  Br12  1  0.75000000  0.50388715  0.40125545  1.0
  Br  Br13  1  0.25000000  0.49611284  0.59874457  1.0
  Br  Br14  1  0.75000000  0.00388715  0.09874456  1.0
  Br  Br15  1  0.25000000  0.99611283  0.90125545  1.0
  Br  Br16  1  0.25000000  0.31750346  0.22743631  1.0
  Br  Br17  1  0.75000000  0.68249652  0.77256370  1.0
  Br  Br18  1  0.25000000  0.81750346  0.27256371  1.0
  Br  Br19  1  0.75000000  0.18249651  0.72743631  1.0
  Br  Br20  1  0.25000000  0.12389355  0.42722155  1.0
  Br  Br21  1  0.75000000  0.37610643  0.92722153  1.0
  Br  Br22  1  0.25000000  0.62389354  0.07277848  1.0
  Br  Br23  1  0.74999999  0.87610643  0.57277847  1.0
