# generated using pymatgen
data_Rb2CdF4
_symmetry_space_group_name_H-M   'P 1'
_cell_length_a   7.73489521
_cell_length_b   7.73489522
_cell_length_c   7.73506022
_cell_angle_alpha   146.37154580
_cell_angle_beta   146.37154556
_cell_angle_gamma   48.29548488
_symmetry_Int_Tables_number   1
_chemical_formula_structural   Rb2CdF4
_chemical_formula_sum   'Rb2 Cd1 F4'
_cell_volume   141.34084574
_cell_formula_units_Z   1
loop_
 _symmetry_equiv_pos_site_id
 _symmetry_equiv_pos_as_xyz
  1  'x, y, z'
loop_
 _atom_site_type_symbol
 _atom_site_label
 _atom_site_symmetry_multiplicity
 _atom_site_fract_x
 _atom_site_fract_y
 _atom_site_fract_z
 _atom_site_occupancy
  Rb  Rb0  1  0.35371934  0.35371934  0.00000052  1.0
  Rb  Rb1  1  0.64628067  0.64628066  0.99999948  1.0
  Cd  Cd2  1  0.00000000  0.00000000  0.00000000  1.0
  F  F3  1  0.15943572  0.15943573  0.00000503  1.0
  F  F4  1  0.84056427  0.84056427  0.99999497  1.0
  F  F5  1  0.50000000  0.00000000  0.50000000  1.0
  F  F6  1  0.00000000  0.50000000  0.50000000  1.0
