# generated using pymatgen
data_Rb2CaF4
_symmetry_space_group_name_H-M   'P 1'
_cell_length_a   7.77176614
_cell_length_b   7.77176548
_cell_length_c   7.77192468
_cell_angle_alpha   146.62380286
_cell_angle_beta   146.62380592
_cell_angle_gamma   47.92140548
_symmetry_Int_Tables_number   1
_chemical_formula_structural   Rb2CaF4
_chemical_formula_sum   'Rb2 Ca1 F4'
_cell_volume   141.49568648
_cell_formula_units_Z   1
loop_
 _symmetry_equiv_pos_site_id
 _symmetry_equiv_pos_as_xyz
  1  'x, y, z'
loop_
 _atom_site_type_symbol
 _atom_site_label
 _atom_site_symmetry_multiplicity
 _atom_site_fract_x
 _atom_site_fract_y
 _atom_site_fract_z
 _atom_site_occupancy
  Rb  Rb0  1  0.35148486  0.35148495  0.00000108  1.0
  Rb  Rb1  1  0.64851515  0.64851503  0.99999887  1.0
  Ca  Ca2  1  0.00000002  0.00000008  0.00000012  1.0
  F  F3  1  0.15973180  0.15973190  0.00000271  1.0
  F  F4  1  0.84026818  0.84026801  0.99999718  1.0
  F  F5  1  0.49999995  0.00000002  0.50000003  1.0
  F  F6  1  0.00000005  0.50000000  0.50000002  1.0
