# generated using pymatgen
data_Rb2CuF4
_symmetry_space_group_name_H-M   'P 1'
_cell_length_a   7.43407006
_cell_length_b   7.43407008
_cell_length_c   7.43419417
_cell_angle_alpha   146.93068667
_cell_angle_beta   146.93068577
_cell_angle_gamma   47.46721572
_symmetry_Int_Tables_number   1
_chemical_formula_structural   Rb2CuF4
_chemical_formula_sum   'Rb2 Cu1 F4'
_cell_volume   121.85015263
_cell_formula_units_Z   1
loop_
 _symmetry_equiv_pos_site_id
 _symmetry_equiv_pos_as_xyz
  1  'x, y, z'
loop_
 _atom_site_type_symbol
 _atom_site_label
 _atom_site_symmetry_multiplicity
 _atom_site_fract_x
 _atom_site_fract_y
 _atom_site_fract_z
 _atom_site_occupancy
  Rb  Rb0  1  0.35571239  0.35571240  0.99999897  1.0
  Rb  Rb1  1  0.64428760  0.64428761  0.00000103  1.0
  Cu  Cu2  1  0.00000000  0.00000000  0.00000000  1.0
  F  F3  1  0.14550893  0.14550892  0.00002503  1.0
  F  F4  1  0.85449108  0.85449108  0.99997497  1.0
  F  F5  1  0.50000000  0.00000000  0.50000000  1.0
  F  F6  1  0.00000000  0.50000000  0.50000000  1.0
