# generated using pymatgen
data_Rb2CoF4
_symmetry_space_group_name_H-M   'P 1'
_cell_length_a   7.55474593
_cell_length_b   7.55475137
_cell_length_c   7.55099146
_cell_angle_alpha   147.62118245
_cell_angle_beta   147.62244988
_cell_angle_gamma   46.51200781
_symmetry_Int_Tables_number   1
_chemical_formula_structural   Rb2CoF4
_chemical_formula_sum   'Rb2 Co1 F4'
_cell_volume   123.11490728
_cell_formula_units_Z   1
loop_
 _symmetry_equiv_pos_site_id
 _symmetry_equiv_pos_as_xyz
  1  'x, y, z'
loop_
 _atom_site_type_symbol
 _atom_site_label
 _atom_site_symmetry_multiplicity
 _atom_site_fract_x
 _atom_site_fract_y
 _atom_site_fract_z
 _atom_site_occupancy
  Rb  Rb0  1  0.35448460  0.35448432  0.99999169  1.0
  Rb  Rb1  1  0.64551547  0.64551572  0.00000841  1.0
  Co  Co2  1  0.99999998  0.99999999  0.99999998  1.0
  F  F3  1  0.14724762  0.14723772  0.00001684  1.0
  F  F4  1  0.85275236  0.85276227  0.99998313  1.0
  F  F5  1  0.49999999  0.00000000  0.49999998  1.0
  F  F6  1  0.99999998  0.49999997  0.49999998  1.0
