# generated using pymatgen
data_Rb2HgF4
_symmetry_space_group_name_H-M   'P 1'
_cell_length_a   7.74186433
_cell_length_b   7.74186434
_cell_length_c   7.74212364
_cell_angle_alpha   145.49115058
_cell_angle_beta   145.49115085
_cell_angle_gamma   49.60315197
_symmetry_Int_Tables_number   1
_chemical_formula_structural   Rb2HgF4
_chemical_formula_sum   'Rb2 Hg1 F4'
_cell_volume   148.24234041
_cell_formula_units_Z   1
loop_
 _symmetry_equiv_pos_site_id
 _symmetry_equiv_pos_as_xyz
  1  'x, y, z'
loop_
 _atom_site_type_symbol
 _atom_site_label
 _atom_site_symmetry_multiplicity
 _atom_site_fract_x
 _atom_site_fract_y
 _atom_site_fract_z
 _atom_site_occupancy
  Rb  Rb0  1  0.35648767  0.35648767  0.99999861  1.0
  Rb  Rb1  1  0.64351233  0.64351233  0.00000139  1.0
  Hg  Hg2  1  0.00000000  0.00000000  0.00000000  1.0
  F  F3  1  0.16388440  0.16388440  0.00000669  1.0
  F  F4  1  0.83611560  0.83611560  0.99999331  1.0
  F  F5  1  0.50000000  0.00000000  0.50000000  1.0
  F  F6  1  0.00000000  0.50000000  0.50000000  1.0
