# generated using pymatgen
data_Rb2NiF4
_symmetry_space_group_name_H-M   'P 1'
_cell_length_a   7.52625081
_cell_length_b   7.52628122
_cell_length_c   7.52653575
_cell_angle_alpha   147.90438602
_cell_angle_beta   147.90435035
_cell_angle_gamma   46.02639835
_symmetry_Int_Tables_number   1
_chemical_formula_structural   Rb2NiF4
_chemical_formula_sum   'Rb2 Ni1 F4'
_cell_volume   119.94937016
_cell_formula_units_Z   1
loop_
 _symmetry_equiv_pos_site_id
 _symmetry_equiv_pos_as_xyz
  1  'x, y, z'
loop_
 _atom_site_type_symbol
 _atom_site_label
 _atom_site_symmetry_multiplicity
 _atom_site_fract_x
 _atom_site_fract_y
 _atom_site_fract_z
 _atom_site_occupancy
  Rb  Rb0  1  0.35302166  0.35302198  0.99999886  1.0
  Rb  Rb1  1  0.64697824  0.64697841  0.00000135  1.0
  Ni  Ni2  1  0.00000004  0.99999991  0.00000000  1.0
  F  F3  1  0.14635908  0.14635344  0.00011649  1.0
  F  F4  1  0.85364092  0.85364638  0.99988335  1.0
  F  F5  1  0.50000003  0.99999994  0.49999995  1.0
  F  F6  1  0.00000004  0.49999995  0.50000000  1.0
