# generated using pymatgen
data_Rb2TlCl3
_symmetry_space_group_name_H-M   'P 1'
_cell_length_a   4.57261498
_cell_length_b   10.83771382
_cell_length_c   18.12499959
_cell_angle_alpha   89.99995614
_cell_angle_beta   90.00000252
_cell_angle_gamma   89.99999884
_symmetry_Int_Tables_number   1
_chemical_formula_structural   Rb2TlCl3
_chemical_formula_sum   'Rb8 Tl4 Cl12'
_cell_volume   898.21503237
_cell_formula_units_Z   4
loop_
 _symmetry_equiv_pos_site_id
 _symmetry_equiv_pos_as_xyz
  1  'x, y, z'
loop_
 _atom_site_type_symbol
 _atom_site_label
 _atom_site_symmetry_multiplicity
 _atom_site_fract_x
 _atom_site_fract_y
 _atom_site_fract_z
 _atom_site_occupancy
  Rb  Rb0  1  0.75000025  0.62413329  0.21874702  1.0
  Rb  Rb1  1  0.74999971  0.16761597  0.56069374  1.0
  Rb  Rb2  1  0.24999987  0.33238439  0.06069363  1.0
  Rb  Rb3  1  0.75000012  0.66761546  0.93930629  1.0
  Rb  Rb4  1  0.74999985  0.12413320  0.28125339  1.0
  Rb  Rb5  1  0.25000012  0.87586689  0.71874665  1.0
  Rb  Rb6  1  0.24999986  0.37586689  0.78125296  1.0
  Rb  Rb7  1  0.25000026  0.83238419  0.43930641  1.0
  Tl  Tl8  1  0.25000016  0.42124910  0.40478663  1.0
  Tl  Tl9  1  0.74999983  0.57875078  0.59521333  1.0
  Tl  Tl10  1  0.24999994  0.92124884  0.09521388  1.0
  Tl  Tl11  1  0.75000002  0.07875133  0.90478609  1.0
  Cl  Cl12  1  0.75000022  0.61570710  0.40105416  1.0
  Cl  Cl13  1  0.24999974  0.38429317  0.59894578  1.0
  Cl  Cl14  1  0.74999989  0.11570695  0.09894588  1.0
  Cl  Cl15  1  0.25000010  0.88429269  0.90105411  1.0
  Cl  Cl16  1  0.24999978  0.37572496  0.24355200  1.0
  Cl  Cl17  1  0.75000036  0.62427503  0.75644801  1.0
  Cl  Cl18  1  0.25000013  0.87572529  0.25644710  1.0
  Cl  Cl19  1  0.74999984  0.12427454  0.74355285  1.0
  Cl  Cl20  1  0.24999971  0.13155004  0.42461439  1.0
  Cl  Cl21  1  0.74999987  0.36844982  0.92461426  1.0
  Cl  Cl22  1  0.25000015  0.63155007  0.07538570  1.0
  Cl  Cl23  1  0.75000024  0.86845000  0.57538575  1.0
