# generated using pymatgen
data_Rb2ZnF4
_symmetry_space_group_name_H-M   'P 1'
_cell_length_a   7.54758170
_cell_length_b   7.54758088
_cell_length_c   7.54762303
_cell_angle_alpha   147.46518446
_cell_angle_beta   147.46518471
_cell_angle_gamma   46.67571452
_symmetry_Int_Tables_number   1
_chemical_formula_structural   Rb2ZnF4
_chemical_formula_sum   'Rb2 Zn1 F4'
_cell_volume   123.90997352
_cell_formula_units_Z   1
loop_
 _symmetry_equiv_pos_site_id
 _symmetry_equiv_pos_as_xyz
  1  'x, y, z'
loop_
 _atom_site_type_symbol
 _atom_site_label
 _atom_site_symmetry_multiplicity
 _atom_site_fract_x
 _atom_site_fract_y
 _atom_site_fract_z
 _atom_site_occupancy
  Rb  Rb0  1  0.35449274  0.35449262  0.00000072  1.0
  Rb  Rb1  1  0.64550722  0.64550745  0.99999922  1.0
  Zn  Zn2  1  0.99999999  0.99999998  0.99999998  1.0
  F  F3  1  0.14738487  0.14738493  0.00000602  1.0
  F  F4  1  0.85261515  0.85261511  0.99999408  1.0
  F  F5  1  0.50000002  0.99999993  0.49999997  1.0
  F  F6  1  0.00000001  0.49999999  0.50000002  1.0
