# generated using pymatgen
data_RbAlTe3O8
_symmetry_space_group_name_H-M   'P 1'
_cell_length_a   5.47879277
_cell_length_b   7.68891459
_cell_length_c   10.85247374
_cell_angle_alpha   98.88812910
_cell_angle_beta   89.66614225
_cell_angle_gamma   108.04864652
_symmetry_Int_Tables_number   1
_chemical_formula_structural   RbAlTe3O8
_chemical_formula_sum   'Rb2 Al2 Te6 O16'
_cell_volume   429.02537268
_cell_formula_units_Z   2
loop_
 _symmetry_equiv_pos_site_id
 _symmetry_equiv_pos_as_xyz
  1  'x, y, z'
loop_
 _atom_site_type_symbol
 _atom_site_label
 _atom_site_symmetry_multiplicity
 _atom_site_fract_x
 _atom_site_fract_y
 _atom_site_fract_z
 _atom_site_occupancy
  Rb  Rb0  1  0.82906687  0.11258539  0.16341690  1.0
  Rb  Rb1  1  0.17093310  0.88741459  0.83658312  1.0
  Al  Al2  1  0.50000001  0.50000000  0.00000000  1.0
  Al  Al3  1  0.00000002  0.50000002  0.49999999  1.0
  Te  Te4  1  0.22113984  0.96904075  0.41272412  1.0
  Te  Te5  1  0.77886014  0.03095927  0.58727590  1.0
  Te  Te6  1  0.04814466  0.65023641  0.14299653  1.0
  Te  Te7  1  0.95185539  0.34976360  0.85700346  1.0
  Te  Te8  1  0.52302904  0.53358742  0.33880167  1.0
  Te  Te9  1  0.47697089  0.46641256  0.66119831  1.0
  O  O10  1  0.15354555  0.71418339  0.41826575  1.0
  O  O11  1  0.84645448  0.28581663  0.58173428  1.0
  O  O12  1  0.23146366  0.90694930  0.21820640  1.0
  O  O13  1  0.76853636  0.09305071  0.78179362  1.0
  O  O14  1  0.87445946  0.97286367  0.39409220  1.0
  O  O15  1  0.12554051  0.02713631  0.60590783  1.0
  O  O16  1  0.26685007  0.64846586  0.00527757  1.0
  O  O17  1  0.73314991  0.35153414  0.99472244  1.0
  O  O18  1  0.78788304  0.71492011  0.06411200  1.0
  O  O19  1  0.21211699  0.28507987  0.93588800  1.0
  O  O20  1  0.40648332  0.44017736  0.16827402  1.0
  O  O21  1  0.59351666  0.55982260  0.83172596  1.0
  O  O22  1  0.23430983  0.38258405  0.41446636  1.0
  O  O23  1  0.76569017  0.61741596  0.58553362  1.0
  O  O24  1  0.74770130  0.39371064  0.35963338  1.0
  O  O25  1  0.25229872  0.60628941  0.64036660  1.0
