# generated using pymatgen
data_RbAlI4
_symmetry_space_group_name_H-M   'P 1'
_cell_length_a   12.59554721
_cell_length_b   7.65651535
_cell_length_c   13.14191386
_cell_angle_alpha   82.42735527
_cell_angle_beta   90.00000249
_cell_angle_gamma   90.00000056
_symmetry_Int_Tables_number   1
_chemical_formula_structural   RbAlI4
_chemical_formula_sum   'Rb4 Al4 I16'
_cell_volume   1256.32653324
_cell_formula_units_Z   4
loop_
 _symmetry_equiv_pos_site_id
 _symmetry_equiv_pos_as_xyz
  1  'x, y, z'
loop_
 _atom_site_type_symbol
 _atom_site_label
 _atom_site_symmetry_multiplicity
 _atom_site_fract_x
 _atom_site_fract_y
 _atom_site_fract_z
 _atom_site_occupancy
  Rb  Rb0  1  0.48927975  0.58820147  0.70939544  1.0
  Rb  Rb1  1  0.51072025  0.41179854  0.29060455  1.0
  Rb  Rb2  1  0.98927977  0.41179853  0.29060453  1.0
  Rb  Rb3  1  0.01072024  0.58820148  0.70939546  1.0
  Al  Al4  1  0.75000000  0.22140389  0.55358337  1.0
  Al  Al5  1  0.25000000  0.77859612  0.44641663  1.0
  Al  Al6  1  0.74999999  0.42655445  0.02684190  1.0
  Al  Al7  1  0.25000001  0.57344553  0.97315811  1.0
  I  I8  1  0.75000001  0.10250382  0.37955604  1.0
  I  I9  1  0.91623063  0.23414379  0.04790960  1.0
  I  I10  1  0.75000001  0.56127586  0.51500066  1.0
  I  I11  1  0.41982201  0.87553100  0.34751041  1.0
  I  I12  1  0.74999999  0.60957786  0.84674940  1.0
  I  I13  1  0.75000000  0.64682742  0.16038471  1.0
  I  I14  1  0.58376936  0.23414379  0.04790960  1.0
  I  I15  1  0.08376936  0.76585619  0.95209041  1.0
  I  I16  1  0.24999999  0.89749618  0.62044397  1.0
  I  I17  1  0.58017799  0.12446903  0.65248960  1.0
  I  I18  1  0.08017801  0.87553100  0.34751035  1.0
  I  I19  1  0.24999999  0.43872416  0.48499933  1.0
  I  I20  1  0.25000002  0.39042212  0.15325060  1.0
  I  I21  1  0.91982199  0.12446901  0.65248966  1.0
  I  I22  1  0.41623064  0.76585620  0.95209040  1.0
  I  I23  1  0.25000000  0.35317257  0.83961529  1.0
