# generated using pymatgen
data_RbCrO2
_symmetry_space_group_name_H-M   'P 1'
_cell_length_a   6.53733282
_cell_length_b   6.53733166
_cell_length_c   6.53733988
_cell_angle_alpha   28.05269904
_cell_angle_beta   28.05271088
_cell_angle_gamma   28.05279291
_symmetry_Int_Tables_number   1
_chemical_formula_structural   RbCrO2
_chemical_formula_sum   'Rb1 Cr1 O2'
_cell_volume   54.58006984
_cell_formula_units_Z   1
loop_
 _symmetry_equiv_pos_site_id
 _symmetry_equiv_pos_as_xyz
  1  'x, y, z'
loop_
 _atom_site_type_symbol
 _atom_site_label
 _atom_site_symmetry_multiplicity
 _atom_site_fract_x
 _atom_site_fract_y
 _atom_site_fract_z
 _atom_site_occupancy
  Rb  Rb0  1  0.99999999  0.00000000  0.00000002  1.0
  Cr  Cr1  1  0.50000000  0.50000000  0.50000000  1.0
  O  O2  1  0.77955570  0.77955502  0.77955443  1.0
  O  O3  1  0.22044431  0.22044498  0.22044555  1.0
