# generated using pymatgen
data_RbInSiO4
_symmetry_space_group_name_H-M   'P 1'
_cell_length_a   5.45317825
_cell_length_b   6.83924308
_cell_length_c   10.90695588
_cell_angle_alpha   89.99999787
_cell_angle_beta   90.00000074
_cell_angle_gamma   89.99999989
_symmetry_Int_Tables_number   1
_chemical_formula_structural   RbInSiO4
_chemical_formula_sum   'Rb4 In4 Si4 O16'
_cell_volume   406.78159035
_cell_formula_units_Z   4
loop_
 _symmetry_equiv_pos_site_id
 _symmetry_equiv_pos_as_xyz
  1  'x, y, z'
loop_
 _atom_site_type_symbol
 _atom_site_label
 _atom_site_symmetry_multiplicity
 _atom_site_fract_x
 _atom_site_fract_y
 _atom_site_fract_z
 _atom_site_occupancy
  Rb  Rb0  1  0.00000000  0.99999997  0.99999998  1.0
  Rb  Rb1  1  0.50000000  0.00000000  0.50000000  1.0
  Rb  Rb2  1  0.00000000  0.49999998  0.00000002  1.0
  Rb  Rb3  1  0.50000001  0.49999999  0.50000001  1.0
  In  In4  1  0.98680911  0.75000000  0.28848539  1.0
  In  In5  1  0.51319090  0.75000000  0.78848540  1.0
  In  In6  1  0.01319089  0.25000001  0.71151461  1.0
  In  In7  1  0.48680910  0.25000000  0.21151460  1.0
  Si  Si8  1  0.53079055  0.74999998  0.12581837  1.0
  Si  Si9  1  0.96920944  0.75000000  0.62581836  1.0
  Si  Si10  1  0.46920945  0.25000001  0.87418163  1.0
  Si  Si11  1  0.03079056  0.25000002  0.37418164  1.0
  O  O12  1  0.82708943  0.56413843  0.69453999  1.0
  O  O13  1  0.17291055  0.43586159  0.30546001  1.0
  O  O14  1  0.67291054  0.56413840  0.19453998  1.0
  O  O15  1  0.82708932  0.93586159  0.69453989  1.0
  O  O16  1  0.32708932  0.06413842  0.80546011  1.0
  O  O17  1  0.76390398  0.24999998  0.85565714  1.0
  O  O18  1  0.32708943  0.43586159  0.80546002  1.0
  O  O19  1  0.17291071  0.06413844  0.30546011  1.0
  O  O20  1  0.23609602  0.75000005  0.14434286  1.0
  O  O21  1  0.73609603  0.24999995  0.35565713  1.0
  O  O22  1  0.58867874  0.74999995  0.97638198  1.0
  O  O23  1  0.26390398  0.75000004  0.64434286  1.0
  O  O24  1  0.91132124  0.74999996  0.47638196  1.0
  O  O25  1  0.08867875  0.25000005  0.52361804  1.0
  O  O26  1  0.41132125  0.25000003  0.02361802  1.0
  O  O27  1  0.67291071  0.93586156  0.19453988  1.0
