# generated using pymatgen
data_RbLiSO4
_symmetry_space_group_name_H-M   'P 1'
_cell_length_a   5.31477229
_cell_length_b   5.31473425
_cell_length_c   8.95188196
_cell_angle_alpha   90.00000477
_cell_angle_beta   89.99998540
_cell_angle_gamma   120.00010452
_symmetry_Int_Tables_number   1
_chemical_formula_structural   RbLiSO4
_chemical_formula_sum   'Rb2 Li2 S2 O8'
_cell_volume   218.98316925
_cell_formula_units_Z   2
loop_
 _symmetry_equiv_pos_site_id
 _symmetry_equiv_pos_as_xyz
  1  'x, y, z'
loop_
 _atom_site_type_symbol
 _atom_site_label
 _atom_site_symmetry_multiplicity
 _atom_site_fract_x
 _atom_site_fract_y
 _atom_site_fract_z
 _atom_site_occupancy
  Rb  Rb0  1  0.00000065  0.00000122  0.49585562  1.0
  Rb  Rb1  1  0.99999943  0.99999895  0.99585574  1.0
  Li  Li2  1  0.66666667  0.33333333  0.68100050  1.0
  Li  Li3  1  0.33333333  0.66666667  0.18100034  1.0
  S  S4  1  0.33333333  0.66666667  0.79359078  1.0
  S  S5  1  0.66666667  0.33333333  0.29359023  1.0
  O  O6  1  0.64002862  0.05558571  0.23916947  1.0
  O  O7  1  0.94440551  0.58443707  0.23917020  1.0
  O  O8  1  0.58443949  0.64002918  0.73916933  1.0
  O  O9  1  0.35997115  0.94441441  0.73916965  1.0
  O  O10  1  0.66666667  0.33333333  0.46044439  1.0
  O  O11  1  0.05559427  0.41556293  0.73917021  1.0
  O  O12  1  0.41556081  0.35997102  0.23916946  1.0
  O  O13  1  0.33333333  0.66666667  0.96044413  1.0
