# generated using pymatgen
data_RbMoO2
_symmetry_space_group_name_H-M   'P 1'
_cell_length_a   6.56350133
_cell_length_b   6.56350109
_cell_length_c   6.56350001
_cell_angle_alpha   29.87405947
_cell_angle_beta   29.87405011
_cell_angle_gamma   29.87396181
_symmetry_Int_Tables_number   1
_chemical_formula_structural   RbMoO2
_chemical_formula_sum   'Rb1 Mo1 O2'
_cell_volume   62.12641535
_cell_formula_units_Z   1
loop_
 _symmetry_equiv_pos_site_id
 _symmetry_equiv_pos_as_xyz
  1  'x, y, z'
loop_
 _atom_site_type_symbol
 _atom_site_label
 _atom_site_symmetry_multiplicity
 _atom_site_fract_x
 _atom_site_fract_y
 _atom_site_fract_z
 _atom_site_occupancy
  Rb  Rb0  1  0.00000000  0.00000003  0.99999997  1.0
  Mo  Mo1  1  0.50000001  0.50000000  0.49999999  1.0
  O  O2  1  0.77791741  0.77791864  0.77792013  1.0
  O  O3  1  0.22208258  0.22208133  0.22207990  1.0
