# generated using pymatgen
data_RbRhO2
_symmetry_space_group_name_H-M   'P 1'
_cell_length_a   6.26993674
_cell_length_b   6.26993668
_cell_length_c   6.26993702
_cell_angle_alpha   30.32658710
_cell_angle_beta   30.32658769
_cell_angle_gamma   30.32658961
_symmetry_Int_Tables_number   1
_chemical_formula_structural   RbRhO2
_chemical_formula_sum   'Rb1 Rh1 O2'
_cell_volume   55.69124917
_cell_formula_units_Z   1
loop_
 _symmetry_equiv_pos_site_id
 _symmetry_equiv_pos_as_xyz
  1  'x, y, z'
loop_
 _atom_site_type_symbol
 _atom_site_label
 _atom_site_symmetry_multiplicity
 _atom_site_fract_x
 _atom_site_fract_y
 _atom_site_fract_z
 _atom_site_occupancy
  Rb  Rb0  1  0.99999999  0.99999999  0.99999998  1.0
  Rh  Rh1  1  0.50000002  0.50000002  0.50000002  1.0
  O  O2  1  0.78132959  0.78132959  0.78132948  1.0
  O  O3  1  0.21867041  0.21867041  0.21867052  1.0
