# generated using pymatgen
data_RbScTe3O8
_symmetry_space_group_name_H-M   'P 1'
_cell_length_a   5.83375984
_cell_length_b   7.71668326
_cell_length_c   11.26482430
_cell_angle_alpha   99.97222590
_cell_angle_beta   89.45746326
_cell_angle_gamma   108.97527281
_symmetry_Int_Tables_number   1
_chemical_formula_structural   RbScTe3O8
_chemical_formula_sum   'Rb2 Sc2 Te6 O16'
_cell_volume   471.71190158
_cell_formula_units_Z   2
loop_
 _symmetry_equiv_pos_site_id
 _symmetry_equiv_pos_as_xyz
  1  'x, y, z'
loop_
 _atom_site_type_symbol
 _atom_site_label
 _atom_site_symmetry_multiplicity
 _atom_site_fract_x
 _atom_site_fract_y
 _atom_site_fract_z
 _atom_site_occupancy
  Rb  Rb0  1  0.83461317  0.11741966  0.16850840  1.0
  Rb  Rb1  1  0.16538424  0.88258071  0.83149276  1.0
  Sc  Sc2  1  0.49999675  0.50000304  0.99999979  1.0
  Sc  Sc3  1  0.00000077  0.49999954  0.49999855  1.0
  Te  Te4  1  0.21993189  0.98719899  0.41720673  1.0
  Te  Te5  1  0.78006743  0.01279856  0.58279444  1.0
  Te  Te6  1  0.06603637  0.67122391  0.14709452  1.0
  Te  Te7  1  0.93396026  0.32877557  0.85290609  1.0
  Te  Te8  1  0.51577953  0.52872756  0.33627070  1.0
  Te  Te9  1  0.48422454  0.47126998  0.66372736  1.0
  O  O10  1  0.17817459  0.73546711  0.42311029  1.0
  O  O11  1  0.82182529  0.26453051  0.57688975  1.0
  O  O12  1  0.23560308  0.92570486  0.22813820  1.0
  O  O13  1  0.76439456  0.07429438  0.77186339  1.0
  O  O14  1  0.88445657  0.96517723  0.39570760  1.0
  O  O15  1  0.11554313  0.03482152  0.60429413  1.0
  O  O16  1  0.27057354  0.67270453  0.01553928  1.0
  O  O17  1  0.72942254  0.32729819  0.98446075  1.0
  O  O18  1  0.81588388  0.72770699  0.07382509  1.0
  O  O19  1  0.18411624  0.27229559  0.92617666  1.0
  O  O20  1  0.40290612  0.43629209  0.17251943  1.0
  O  O21  1  0.59709391  0.56371458  0.82747798  1.0
  O  O22  1  0.24583905  0.37299726  0.40821705  1.0
  O  O23  1  0.75416778  0.62700004  0.59178110  1.0
  O  O24  1  0.73860824  0.39968641  0.34838521  1.0
  O  O25  1  0.26139653  0.60031120  0.65161476  1.0
