# generated using pymatgen
data_RbSiBiO4
_symmetry_space_group_name_H-M   'P 1'
_cell_length_a   6.65106066
_cell_length_b   7.26538546
_cell_length_c   10.20294878
_cell_angle_alpha   90.00000033
_cell_angle_beta   90.00004514
_cell_angle_gamma   89.99994055
_symmetry_Int_Tables_number   1
_chemical_formula_structural   RbSiBiO4
_chemical_formula_sum   'Rb4 Si4 Bi4 O16'
_cell_volume   493.03219049
_cell_formula_units_Z   4
loop_
 _symmetry_equiv_pos_site_id
 _symmetry_equiv_pos_as_xyz
  1  'x, y, z'
loop_
 _atom_site_type_symbol
 _atom_site_label
 _atom_site_symmetry_multiplicity
 _atom_site_fract_x
 _atom_site_fract_y
 _atom_site_fract_z
 _atom_site_occupancy
  Rb  Rb0  1  0.00000000  0.00000000  0.00000000  1.0
  Rb  Rb1  1  0.00000000  0.50000000  0.00000000  1.0
  Rb  Rb2  1  0.50000000  0.50000000  0.50000000  1.0
  Rb  Rb3  1  0.50000000  0.00000000  0.50000000  1.0
  Si  Si4  1  0.98584228  0.75000043  0.66328231  1.0
  Si  Si5  1  0.51415860  0.74999910  0.16328137  1.0
  Si  Si6  1  0.48584140  0.25000091  0.83671862  1.0
  Si  Si7  1  0.01415767  0.24999957  0.33671769  1.0
  Bi  Bi8  1  0.91288982  0.24999995  0.65323797  1.0
  Bi  Bi9  1  0.58711003  0.25000011  0.15323798  1.0
  Bi  Bi10  1  0.41288997  0.74999989  0.84676202  1.0
  Bi  Bi11  1  0.08711019  0.75000004  0.34676203  1.0
  O  O12  1  0.89781420  0.24999996  0.19312208  1.0
  O  O13  1  0.66876225  0.25000002  0.95004590  1.0
  O  O14  1  0.65212184  0.93517097  0.15114905  1.0
  O  O15  1  0.65212124  0.56482979  0.15114918  1.0
  O  O16  1  0.84787834  0.93517075  0.65114917  1.0
  O  O17  1  0.84787800  0.56482881  0.65114919  1.0
  O  O18  1  0.83123765  0.25000004  0.45004615  1.0
  O  O19  1  0.60218642  0.24999997  0.69312145  1.0
  O  O20  1  0.39781357  0.75000003  0.30687855  1.0
  O  O21  1  0.16876237  0.74999996  0.54995384  1.0
  O  O22  1  0.34787877  0.43517020  0.84885082  1.0
  O  O23  1  0.34787815  0.06482903  0.84885095  1.0
  O  O24  1  0.15212167  0.06482922  0.34885083  1.0
  O  O25  1  0.15212201  0.43517121  0.34885081  1.0
  O  O26  1  0.10218581  0.75000004  0.80687792  1.0
  O  O27  1  0.33123775  0.74999998  0.04995410  1.0
