# generated using pymatgen
data_RbSiBiO4
_symmetry_space_group_name_H-M   'P 1'
_cell_length_a   5.48531051
_cell_length_b   7.34945692
_cell_length_c   13.02453471
_cell_angle_alpha   90.00000506
_cell_angle_beta   89.99999355
_cell_angle_gamma   90.00000003
_symmetry_Int_Tables_number   1
_chemical_formula_structural   RbSiBiO4
_chemical_formula_sum   'Rb4 Si4 Bi4 O16'
_cell_volume   525.07178633
_cell_formula_units_Z   4
loop_
 _symmetry_equiv_pos_site_id
 _symmetry_equiv_pos_as_xyz
  1  'x, y, z'
loop_
 _atom_site_type_symbol
 _atom_site_label
 _atom_site_symmetry_multiplicity
 _atom_site_fract_x
 _atom_site_fract_y
 _atom_site_fract_z
 _atom_site_occupancy
  Rb  Rb0  1  0.23289500  0.96865590  0.15986142  1.0
  Rb  Rb1  1  0.73289515  0.46865581  0.34013855  1.0
  Rb  Rb2  1  0.23289510  0.53134426  0.65986139  1.0
  Rb  Rb3  1  0.73289506  0.03134403  0.84013852  1.0
  Si  Si4  1  0.74805789  0.74139441  0.05864658  1.0
  Si  Si5  1  0.24805798  0.24139446  0.44135350  1.0
  Si  Si6  1  0.74805799  0.75860562  0.55864651  1.0
  Si  Si7  1  0.24805788  0.25860551  0.94135342  1.0
  Bi  Bi8  1  0.73095770  0.27684380  0.10571741  1.0
  Bi  Bi9  1  0.23095788  0.77684382  0.39428252  1.0
  Bi  Bi10  1  0.73095779  0.22315627  0.60571747  1.0
  Bi  Bi11  1  0.23095777  0.72315612  0.89428258  1.0
  O  O12  1  0.09552485  0.27700481  0.05160875  1.0
  O  O13  1  0.04399460  0.71232106  0.03275971  1.0
  O  O14  1  0.67488833  0.57721850  0.13772317  1.0
  O  O15  1  0.71603917  0.94440136  0.10732727  1.0
  O  O16  1  0.21603919  0.44440142  0.39267287  1.0
  O  O17  1  0.17488857  0.07721856  0.36227688  1.0
  O  O18  1  0.54399471  0.21232120  0.46724034  1.0
  O  O19  1  0.59552497  0.77700474  0.44839117  1.0
  O  O20  1  0.09552494  0.22299522  0.55160884  1.0
  O  O21  1  0.04399472  0.78767894  0.53275965  1.0
  O  O22  1  0.67488845  0.92278155  0.63772309  1.0
  O  O23  1  0.71603928  0.55559871  0.60732723  1.0
  O  O24  1  0.21603909  0.05559851  0.89267282  1.0
  O  O25  1  0.17488844  0.42278138  0.86227680  1.0
  O  O26  1  0.54399462  0.28767880  0.96724026  1.0
  O  O27  1  0.59552485  0.72299523  0.94839126  1.0
