# generated using pymatgen
data_RbTiO2
_symmetry_space_group_name_H-M   'P 1'
_cell_length_a   6.62299664
_cell_length_b   6.62299566
_cell_length_c   6.62299596
_cell_angle_alpha   27.73659292
_cell_angle_beta   27.73659242
_cell_angle_gamma   27.73659515
_symmetry_Int_Tables_number   1
_chemical_formula_structural   RbTiO2
_chemical_formula_sum   'Rb1 Ti1 O2'
_cell_volume   55.55863213
_cell_formula_units_Z   1
loop_
 _symmetry_equiv_pos_site_id
 _symmetry_equiv_pos_as_xyz
  1  'x, y, z'
loop_
 _atom_site_type_symbol
 _atom_site_label
 _atom_site_symmetry_multiplicity
 _atom_site_fract_x
 _atom_site_fract_y
 _atom_site_fract_z
 _atom_site_occupancy
  Rb  Rb0  1  0.99999985  0.99999996  0.00000020  1.0
  Ti  Ti1  1  0.50000008  0.50000000  0.49999993  1.0
  O  O2  1  0.77842839  0.77842811  0.77842844  1.0
  O  O3  1  0.22157167  0.22157194  0.22157144  1.0
