# generated using pymatgen
data_RbVO2
_symmetry_space_group_name_H-M   'P 1'
_cell_length_a   6.59017004
_cell_length_b   6.57763646
_cell_length_c   6.59088228
_cell_angle_alpha   27.98457735
_cell_angle_beta   28.56439913
_cell_angle_gamma   27.95934935
_symmetry_Int_Tables_number   1
_chemical_formula_structural   RbVO2
_chemical_formula_sum   'Rb1 V1 O2'
_cell_volume   56.23316530
_cell_formula_units_Z   1
loop_
 _symmetry_equiv_pos_site_id
 _symmetry_equiv_pos_as_xyz
  1  'x, y, z'
loop_
 _atom_site_type_symbol
 _atom_site_label
 _atom_site_symmetry_multiplicity
 _atom_site_fract_x
 _atom_site_fract_y
 _atom_site_fract_z
 _atom_site_occupancy
  Rb  Rb0  1  0.99999971  0.00000081  0.99999955  1.0
  V  V1  1  0.50000030  0.49999897  0.50000055  1.0
  O  O2  1  0.77535660  0.78673874  0.77494613  1.0
  O  O3  1  0.22464339  0.21326148  0.22505378  1.0
