# generated using pymatgen
data_RbVO3
_symmetry_space_group_name_H-M   'P 1'
_cell_length_a   3.82680987
_cell_length_b   6.23876121
_cell_length_c   15.35340963
_cell_angle_alpha   90.00088066
_cell_angle_beta   90.00000064
_cell_angle_gamma   90.00000000
_symmetry_Int_Tables_number   1
_chemical_formula_structural   RbVO3
_chemical_formula_sum   'Rb4 V4 O12'
_cell_volume   366.55579152
_cell_formula_units_Z   4
loop_
 _symmetry_equiv_pos_site_id
 _symmetry_equiv_pos_as_xyz
  1  'x, y, z'
loop_
 _atom_site_type_symbol
 _atom_site_label
 _atom_site_symmetry_multiplicity
 _atom_site_fract_x
 _atom_site_fract_y
 _atom_site_fract_z
 _atom_site_occupancy
  Rb  Rb0  1  0.24999999  0.89798363  0.33519727  1.0
  Rb  Rb1  1  0.75000001  0.10202001  0.66480367  1.0
  Rb  Rb2  1  0.75000001  0.39798383  0.16480449  1.0
  Rb  Rb3  1  0.24999999  0.60201655  0.83519516  1.0
  V  V4  1  0.74999999  0.07137862  0.92492124  1.0
  V  V5  1  0.25000000  0.92861678  0.07507763  1.0
  V  V6  1  0.25000001  0.57138211  0.57507771  1.0
  V  V7  1  0.75000000  0.42861523  0.42492405  1.0
  O  O8  1  0.25000001  0.42710058  0.66791331  1.0
  O  O9  1  0.75000000  0.16792680  0.40194578  1.0
  O  O10  1  0.25000000  0.47201533  0.45318474  1.0
  O  O11  1  0.75000001  0.52798624  0.54681373  1.0
  O  O12  1  0.74999999  0.33207778  0.90194304  1.0
  O  O13  1  0.75000000  0.97201253  0.04681424  1.0
  O  O14  1  0.74999999  0.57290262  0.33208466  1.0
  O  O15  1  0.74999999  0.92710124  0.83208645  1.0
  O  O16  1  0.25000001  0.83207386  0.59805374  1.0
  O  O17  1  0.25000000  0.66792118  0.09805718  1.0
  O  O18  1  0.25000001  0.07289927  0.16791489  1.0
  O  O19  1  0.24999999  0.02798581  0.95318703  1.0
