# generated using pymatgen
data_RbVO3
_symmetry_space_group_name_H-M   'P 1'
_cell_length_a   7.71218421
_cell_length_b   7.71218057
_cell_length_c   6.15540353
_cell_angle_alpha   77.52569175
_cell_angle_beta   77.52562469
_cell_angle_gamma   79.54214937
_symmetry_Int_Tables_number   1
_chemical_formula_structural   RbVO3
_chemical_formula_sum   'Rb4 V4 O12'
_cell_volume   345.51842451
_cell_formula_units_Z   4
loop_
 _symmetry_equiv_pos_site_id
 _symmetry_equiv_pos_as_xyz
  1  'x, y, z'
loop_
 _atom_site_type_symbol
 _atom_site_label
 _atom_site_symmetry_multiplicity
 _atom_site_fract_x
 _atom_site_fract_y
 _atom_site_fract_z
 _atom_site_occupancy
  Rb  Rb0  1  0.10579986  0.89419814  0.75000055  1.0
  Rb  Rb1  1  0.89419872  0.10580179  0.24999841  1.0
  Rb  Rb2  1  0.68280576  0.31719776  0.75000210  1.0
  Rb  Rb3  1  0.31719594  0.68280252  0.24999906  1.0
  V  V4  1  0.20056453  0.36365332  0.74942111  1.0
  V  V5  1  0.36365433  0.20056687  0.24942420  1.0
  V  V6  1  0.79943120  0.63634817  0.25057868  1.0
  V  V7  1  0.63634401  0.79943690  0.75057600  1.0
  O  O8  1  0.64344911  0.68935801  0.50803755  1.0
  O  O9  1  0.35655273  0.31064179  0.49196136  1.0
  O  O10  1  0.68935770  0.64345149  0.00803619  1.0
  O  O11  1  0.96178632  0.76539236  0.17931574  1.0
  O  O12  1  0.03821634  0.23460810  0.82068346  1.0
  O  O13  1  0.76539044  0.96178701  0.67931320  1.0
  O  O14  1  0.10603382  0.57271337  0.67301689  1.0
  O  O15  1  0.23460361  0.03821047  0.32068905  1.0
  O  O16  1  0.57271890  0.10602731  0.17301573  1.0
  O  O17  1  0.42728443  0.89397036  0.82698331  1.0
  O  O18  1  0.89396877  0.42728470  0.32698296  1.0
  O  O19  1  0.31064347  0.35654956  0.99196444  1.0
