# generated using pymatgen
data_Rh2SO2
_symmetry_space_group_name_H-M   'P 1'
_cell_length_a   3.10745761
_cell_length_b   3.10745747
_cell_length_c   7.80158390
_cell_angle_alpha   89.99999402
_cell_angle_beta   90.00001515
_cell_angle_gamma   120.00007051
_symmetry_Int_Tables_number   1
_chemical_formula_structural   Rh2SO2
_chemical_formula_sum   'Rh2 S1 O2'
_cell_volume   65.24143620
_cell_formula_units_Z   1
loop_
 _symmetry_equiv_pos_site_id
 _symmetry_equiv_pos_as_xyz
  1  'x, y, z'
loop_
 _atom_site_type_symbol
 _atom_site_label
 _atom_site_symmetry_multiplicity
 _atom_site_fract_x
 _atom_site_fract_y
 _atom_site_fract_z
 _atom_site_occupancy
  Rh  Rh0  1  0.66666667  0.33333333  0.78080278  1.0
  Rh  Rh1  1  0.33333333  0.66666667  0.21919680  1.0
  S  S2  1  0.00000000  0.00000000  0.99999888  1.0
  O  O3  1  0.66666667  0.33333333  0.34383443  1.0
  O  O4  1  0.33333333  0.66666667  0.65616712  1.0
