# generated using pymatgen
data_RhClO
_symmetry_space_group_name_H-M   'P 1'
_cell_length_a   3.44912476
_cell_length_b   3.44911487
_cell_length_c   7.92228570
_cell_angle_alpha   89.99997625
_cell_angle_beta   90.00002549
_cell_angle_gamma   90.00000133
_symmetry_Int_Tables_number   1
_chemical_formula_structural   RhClO
_chemical_formula_sum   'Rh2 Cl2 O2'
_cell_volume   94.24689745
_cell_formula_units_Z   2
loop_
 _symmetry_equiv_pos_site_id
 _symmetry_equiv_pos_as_xyz
  1  'x, y, z'
loop_
 _atom_site_type_symbol
 _atom_site_label
 _atom_site_symmetry_multiplicity
 _atom_site_fract_x
 _atom_site_fract_y
 _atom_site_fract_z
 _atom_site_occupancy
  Rh  Rh0  1  0.75000227  0.75000520  0.84982937  1.0
  Rh  Rh1  1  0.25000272  0.25000478  0.15015637  1.0
  Cl  Cl2  1  0.24999874  0.24999697  0.67684952  1.0
  Cl  Cl3  1  0.74999841  0.74999733  0.32315205  1.0
  O  O4  1  0.74999899  0.24999792  0.00000598  1.0
  O  O5  1  0.24999887  0.74999780  0.00000672  1.0
