# generated using pymatgen
data_SbBrO
_symmetry_space_group_name_H-M   'P 1'
_cell_length_a   3.78711208
_cell_length_b   7.58182081
_cell_length_c   9.85035618
_cell_angle_alpha   89.99996823
_cell_angle_beta   90.00000003
_cell_angle_gamma   89.99999909
_symmetry_Int_Tables_number   1
_chemical_formula_structural   SbBrO
_chemical_formula_sum   'Sb4 Br4 O4'
_cell_volume   282.83529807
_cell_formula_units_Z   4
loop_
 _symmetry_equiv_pos_site_id
 _symmetry_equiv_pos_as_xyz
  1  'x, y, z'
loop_
 _atom_site_type_symbol
 _atom_site_label
 _atom_site_symmetry_multiplicity
 _atom_site_fract_x
 _atom_site_fract_y
 _atom_site_fract_z
 _atom_site_occupancy
  Sb  Sb0  1  0.75000018  0.17473272  0.04664584  1.0
  Sb  Sb1  1  0.24999980  0.32526736  0.54664573  1.0
  Sb  Sb2  1  0.74999982  0.67473262  0.45335420  1.0
  Sb  Sb3  1  0.25000012  0.82526736  0.95335415  1.0
  Br  Br4  1  0.74999990  0.14357903  0.35950455  1.0
  Br  Br5  1  0.25000011  0.35642103  0.85950456  1.0
  Br  Br6  1  0.75000009  0.64357890  0.14049543  1.0
  Br  Br7  1  0.24999996  0.85642098  0.64049546  1.0
  O  O8  1  0.75000016  0.96687670  0.91370179  1.0
  O  O9  1  0.24999979  0.53312331  0.41370185  1.0
  O  O10  1  0.74999985  0.46687666  0.58629817  1.0
  O  O11  1  0.25000021  0.03312334  0.08629827  1.0
