# generated using pymatgen
data_SbClO
_symmetry_space_group_name_H-M   'P 1'
_cell_length_a   4.06365602
_cell_length_b   6.62759984
_cell_length_c   9.59880746
_cell_angle_alpha   90.00122010
_cell_angle_beta   90.00000812
_cell_angle_gamma   89.99999949
_symmetry_Int_Tables_number   1
_chemical_formula_structural   SbClO
_chemical_formula_sum   'Sb4 Cl4 O4'
_cell_volume   258.51782760
_cell_formula_units_Z   4
loop_
 _symmetry_equiv_pos_site_id
 _symmetry_equiv_pos_as_xyz
  1  'x, y, z'
loop_
 _atom_site_type_symbol
 _atom_site_label
 _atom_site_symmetry_multiplicity
 _atom_site_fract_x
 _atom_site_fract_y
 _atom_site_fract_z
 _atom_site_occupancy
  Sb  Sb0  1  0.74999997  0.31387432  0.06330902  1.0
  Sb  Sb1  1  0.24999998  0.18611553  0.56330782  1.0
  Sb  Sb2  1  0.75000002  0.81388495  0.43669219  1.0
  Sb  Sb3  1  0.25000002  0.68612607  0.93669097  1.0
  Cl  Cl4  1  0.75000001  0.10205505  0.84755221  1.0
  Cl  Cl5  1  0.25000000  0.39794764  0.34755029  1.0
  Cl  Cl6  1  0.75000000  0.60205261  0.65244959  1.0
  Cl  Cl7  1  0.25000000  0.89794506  0.15244785  1.0
  O  O8  1  0.75000000  0.10773698  0.50151160  1.0
  O  O9  1  0.25000000  0.39225835  0.00151228  1.0
  O  O10  1  0.75000000  0.60774109  0.99848777  1.0
  O  O11  1  0.25000000  0.89226237  0.49848841  1.0
