# generated using pymatgen
data_SbIO
_symmetry_space_group_name_H-M   'P 1'
_cell_length_a   4.15013490
_cell_length_b   8.07777397
_cell_length_c   9.74047540
_cell_angle_alpha   89.99893143
_cell_angle_beta   89.99999714
_cell_angle_gamma   89.99999594
_symmetry_Int_Tables_number   1
_chemical_formula_structural   SbIO
_chemical_formula_sum   'Sb4 I4 O4'
_cell_volume   326.53825242
_cell_formula_units_Z   4
loop_
 _symmetry_equiv_pos_site_id
 _symmetry_equiv_pos_as_xyz
  1  'x, y, z'
loop_
 _atom_site_type_symbol
 _atom_site_label
 _atom_site_symmetry_multiplicity
 _atom_site_fract_x
 _atom_site_fract_y
 _atom_site_fract_z
 _atom_site_occupancy
  Sb  Sb0  1  0.75000001  0.15803545  0.04264224  1.0
  Sb  Sb1  1  0.24999999  0.34194262  0.54265628  1.0
  Sb  Sb2  1  0.75000003  0.65806343  0.45733015  1.0
  Sb  Sb3  1  0.24999999  0.84197196  0.95737273  1.0
  I  I4  1  0.74999998  0.07259228  0.32922200  1.0
  I  I5  1  0.24999996  0.42747727  0.82922183  1.0
  I  I6  1  0.75000004  0.57253955  0.17076051  1.0
  I  I7  1  0.25000004  0.92742182  0.67079539  1.0
  O  O8  1  0.74999997  0.93056526  0.95426117  1.0
  O  O9  1  0.25000001  0.56943202  0.45421316  1.0
  O  O10  1  0.74999995  0.43054688  0.54577244  1.0
  O  O11  1  0.25000001  0.06941148  0.04575209  1.0
