# generated using pymatgen
data_SbPO5
_symmetry_space_group_name_H-M   'P 1'
_cell_length_a   6.44818528
_cell_length_b   7.63100796
_cell_length_c   7.26436639
_cell_angle_alpha   90.00019340
_cell_angle_beta   90.00000067
_cell_angle_gamma   90.00000252
_symmetry_Int_Tables_number   1
_chemical_formula_structural   SbPO5
_chemical_formula_sum   'Sb4 P4 O20'
_cell_volume   357.45152548
_cell_formula_units_Z   4
loop_
 _symmetry_equiv_pos_site_id
 _symmetry_equiv_pos_as_xyz
  1  'x, y, z'
loop_
 _atom_site_type_symbol
 _atom_site_label
 _atom_site_symmetry_multiplicity
 _atom_site_fract_x
 _atom_site_fract_y
 _atom_site_fract_z
 _atom_site_occupancy
  Sb  Sb0  1  0.25000000  0.74400273  0.12937805  1.0
  Sb  Sb1  1  0.74999999  0.24400233  0.37062214  1.0
  Sb  Sb2  1  0.25000000  0.75599747  0.62937799  1.0
  Sb  Sb3  1  0.75000000  0.25599747  0.87062208  1.0
  P  P4  1  0.75000003  0.61875791  0.12777221  1.0
  P  P5  1  0.25000003  0.11873960  0.37222378  1.0
  P  P6  1  0.74999999  0.88124404  0.62777480  1.0
  P  P7  1  0.24999998  0.38125847  0.87222629  1.0
  O  O8  1  0.25000010  0.48876974  0.05394138  1.0
  O  O9  1  0.74999999  0.15990448  0.11821534  1.0
  O  O10  1  0.56258608  0.74418396  0.13089172  1.0
  O  O11  1  0.93741390  0.74418392  0.13089159  1.0
  O  O12  1  0.24999993  0.99805784  0.20148256  1.0
  O  O13  1  0.75000003  0.49805103  0.29852454  1.0
  O  O14  1  0.06257842  0.24418820  0.36910839  1.0
  O  O15  1  0.43742152  0.24418820  0.36910828  1.0
  O  O16  1  0.24999997  0.65990434  0.38178562  1.0
  O  O17  1  0.74999995  0.98877400  0.44605395  1.0
  O  O18  1  0.25000006  0.01122974  0.55394233  1.0
  O  O19  1  0.75000002  0.34009564  0.61821431  1.0
  O  O20  1  0.56258529  0.75581561  0.63089164  1.0
  O  O21  1  0.93741473  0.75581560  0.63089154  1.0
  O  O22  1  0.24999994  0.50194351  0.70148080  1.0
  O  O23  1  0.75000007  0.00194759  0.79852291  1.0
  O  O24  1  0.06257928  0.25581227  0.86910827  1.0
  O  O25  1  0.43742074  0.25581224  0.86910814  1.0
  O  O26  1  0.25000002  0.84009555  0.88178460  1.0
  O  O27  1  0.74999995  0.51122653  0.94605476  1.0
