# generated using pymatgen
data_Sc2SO2
_symmetry_space_group_name_H-M   'P 1'
_cell_length_a   3.55149709
_cell_length_b   3.55149737
_cell_length_c   6.29289493
_cell_angle_alpha   90.00001125
_cell_angle_beta   89.99999249
_cell_angle_gamma   120.00003228
_symmetry_Int_Tables_number   1
_chemical_formula_structural   Sc2SO2
_chemical_formula_sum   'Sc2 S1 O2'
_cell_volume   68.73911423
_cell_formula_units_Z   1
loop_
 _symmetry_equiv_pos_site_id
 _symmetry_equiv_pos_as_xyz
  1  'x, y, z'
loop_
 _atom_site_type_symbol
 _atom_site_label
 _atom_site_symmetry_multiplicity
 _atom_site_fract_x
 _atom_site_fract_y
 _atom_site_fract_z
 _atom_site_occupancy
  Sc  Sc0  1  0.66666667  0.33333333  0.71412171  1.0
  Sc  Sc1  1  0.33333333  0.66666667  0.28587826  1.0
  S  S2  1  0.99999997  0.99999998  0.00000001  1.0
  O  O3  1  0.66666667  0.33333333  0.36982575  1.0
  O  O4  1  0.33333333  0.66666667  0.63017427  1.0
