# generated using pymatgen
data_Sc2TeO6
_symmetry_space_group_name_H-M   'P 1'
_cell_length_a   8.85401150
_cell_length_b   8.85413305
_cell_length_c   4.85781152
_cell_angle_alpha   89.99992353
_cell_angle_beta   89.99953475
_cell_angle_gamma   119.99995521
_symmetry_Int_Tables_number   1
_chemical_formula_structural   Sc2TeO6
_chemical_formula_sum   'Sc6 Te3 O18'
_cell_volume   329.80528718
_cell_formula_units_Z   3
loop_
 _symmetry_equiv_pos_site_id
 _symmetry_equiv_pos_as_xyz
  1  'x, y, z'
loop_
 _atom_site_type_symbol
 _atom_site_label
 _atom_site_symmetry_multiplicity
 _atom_site_fract_x
 _atom_site_fract_y
 _atom_site_fract_z
 _atom_site_occupancy
  Sc  Sc0  1  0.99999797  0.62924240  0.00000472  1.0
  Sc  Sc1  1  0.99999467  0.29355517  0.49999681  1.0
  Sc  Sc2  1  0.37075489  0.37075757  0.99999551  1.0
  Sc  Sc3  1  0.29355801  0.00000452  0.49999785  1.0
  Sc  Sc4  1  0.70643995  0.70644895  0.50000096  1.0
  Sc  Sc5  1  0.62924474  0.00000060  0.00000469  1.0
  Te  Te6  1  0.33333333  0.66666667  0.50358857  1.0
  Te  Te7  1  0.99998219  0.00001431  0.00000763  1.0
  Te  Te8  1  0.66666667  0.33333333  0.49640533  1.0
  O  O9  1  0.09061964  0.87993107  0.78067120  1.0
  O  O10  1  0.22256389  0.76735896  0.28002859  1.0
  O  O11  1  0.12344398  0.54339447  0.72764629  1.0
  O  O12  1  0.41993789  0.87656021  0.72764384  1.0
  O  O13  1  0.23265200  0.45522218  0.28003290  1.0
  O  O14  1  0.12006945  0.21067537  0.78067914  1.0
  O  O15  1  0.21068601  0.12006304  0.21932643  1.0
  O  O16  1  0.54477636  0.77742754  0.28003662  1.0
  O  O17  1  0.45661136  0.58005580  0.72763556  1.0
  O  O18  1  0.78932008  0.90937644  0.78067903  1.0
  O  O19  1  0.45521011  0.23264707  0.71997007  1.0
  O  O20  1  0.58005360  0.45661641  0.27234973  1.0
  O  O21  1  0.54337842  0.12344374  0.27236213  1.0
  O  O22  1  0.77743299  0.54479052  0.71997106  1.0
  O  O23  1  0.90938997  0.78931800  0.21932502  1.0
  O  O24  1  0.76734415  0.22257352  0.71996033  1.0
  O  O25  1  0.87655201  0.41995033  0.27236076  1.0
  O  O26  1  0.87993924  0.09061019  0.21931821  1.0
