# generated using pymatgen
data_Sc3Si6N11
_symmetry_space_group_name_H-M   'P 1'
_cell_length_a   9.77035714
_cell_length_b   9.77035718
_cell_length_c   4.85307156
_cell_angle_alpha   89.99984856
_cell_angle_beta   89.99988445
_cell_angle_gamma   89.99992148
_symmetry_Int_Tables_number   1
_chemical_formula_structural   Sc3Si6N11
_chemical_formula_sum   'Sc6 Si12 N22'
_cell_volume   463.27362406
_cell_formula_units_Z   2
loop_
 _symmetry_equiv_pos_site_id
 _symmetry_equiv_pos_as_xyz
  1  'x, y, z'
loop_
 _atom_site_type_symbol
 _atom_site_label
 _atom_site_symmetry_multiplicity
 _atom_site_fract_x
 _atom_site_fract_y
 _atom_site_fract_z
 _atom_site_occupancy
  Sc  Sc0  1  0.49999742  0.50000254  0.96099074  1.0
  Sc  Sc1  1  0.00000312  0.99999802  0.96099089  1.0
  Sc  Sc2  1  0.81072400  0.31072377  0.95734432  1.0
  Sc  Sc3  1  0.31072535  0.18927393  0.95734708  1.0
  Sc  Sc4  1  0.68927435  0.81072497  0.95734661  1.0
  Sc  Sc5  1  0.18927316  0.68927303  0.95734752  1.0
  Si  Si6  1  0.37964002  0.87964008  0.04865228  1.0
  Si  Si7  1  0.87965309  0.62034737  0.04865756  1.0
  Si  Si8  1  0.12034958  0.37965087  0.04865657  1.0
  Si  Si9  1  0.62033736  0.12033743  0.04866122  1.0
  Si  Si10  1  0.70613077  0.58160059  0.53237428  1.0
  Si  Si11  1  0.29386733  0.41840572  0.53237387  1.0
  Si  Si12  1  0.41839924  0.70613532  0.53236909  1.0
  Si  Si13  1  0.58159592  0.29386911  0.53237496  1.0
  Si  Si14  1  0.91840617  0.79386787  0.53237451  1.0
  Si  Si15  1  0.79386922  0.08159676  0.53237491  1.0
  Si  Si16  1  0.20613545  0.91840005  0.53236914  1.0
  Si  Si17  1  0.08160105  0.20613130  0.53237368  1.0
  N  N18  1  0.50002094  0.00002088  0.08085105  1.0
  N  N19  1  0.99999746  0.50000159  0.08085047  1.0
  N  N20  1  0.34602927  0.84602911  0.69919109  1.0
  N  N21  1  0.84602843  0.65397046  0.69919248  1.0
  N  N22  1  0.15397033  0.34602855  0.69919226  1.0
  N  N23  1  0.65397168  0.15397154  0.69919330  1.0
  N  N24  1  0.71555429  0.58567910  0.17705113  1.0
  N  N25  1  0.28444546  0.41432522  0.17705008  1.0
  N  N26  1  0.41432258  0.71555254  0.17704947  1.0
  N  N27  1  0.58567635  0.28444439  0.17705274  1.0
  N  N28  1  0.91432523  0.78444518  0.17705031  1.0
  N  N29  1  0.78444445  0.08567678  0.17705281  1.0
  N  N30  1  0.21555260  0.91432304  0.17704942  1.0
  N  N31  1  0.08567912  0.21555399  0.17705090  1.0
  N  N32  1  0.57755851  0.68233070  0.66965453  1.0
  N  N33  1  0.42244875  0.31766856  0.66965329  1.0
  N  N34  1  0.31766670  0.57755073  0.66965301  1.0
  N  N35  1  0.68233036  0.42244579  0.66965382  1.0
  N  N36  1  0.18233105  0.07755798  0.66965452  1.0
  N  N37  1  0.07754994  0.81766659  0.66965284  1.0
  N  N38  1  0.92244497  0.18233031  0.66965389  1.0
  N  N39  1  0.81766895  0.92244822  0.66965330  1.0
