# generated using pymatgen
data_ScClO
_symmetry_space_group_name_H-M   'P 1'
_cell_length_a   3.57776311
_cell_length_b   3.57775935
_cell_length_c   7.82822256
_cell_angle_alpha   89.99990229
_cell_angle_beta   89.99946417
_cell_angle_gamma   89.99997694
_symmetry_Int_Tables_number   1
_chemical_formula_structural   ScClO
_chemical_formula_sum   'Sc2 Cl2 O2'
_cell_volume   100.20418763
_cell_formula_units_Z   2
loop_
 _symmetry_equiv_pos_site_id
 _symmetry_equiv_pos_as_xyz
  1  'x, y, z'
loop_
 _atom_site_type_symbol
 _atom_site_label
 _atom_site_symmetry_multiplicity
 _atom_site_fract_x
 _atom_site_fract_y
 _atom_site_fract_z
 _atom_site_occupancy
  Sc  Sc0  1  0.75000313  0.75000089  0.86462649  1.0
  Sc  Sc1  1  0.24999540  0.24999892  0.13537359  1.0
  Cl  Cl2  1  0.25000041  0.24999970  0.67517665  1.0
  Cl  Cl3  1  0.75000215  0.75000053  0.32482358  1.0
  O  O4  1  0.74999926  0.25000045  0.00000001  1.0
  O  O5  1  0.24999965  0.74999950  0.99999969  1.0
