# generated using pymatgen
data_ScGaO3
_symmetry_space_group_name_H-M   'P 1'
_cell_length_a   3.78591118
_cell_length_b   3.78591205
_cell_length_c   3.78590811
_cell_angle_alpha   90.00004419
_cell_angle_beta   90.00001695
_cell_angle_gamma   89.99996368
_symmetry_Int_Tables_number   1
_chemical_formula_structural   ScGaO3
_chemical_formula_sum   'Sc1 Ga1 O3'
_cell_volume   54.26390083
_cell_formula_units_Z   1
loop_
 _symmetry_equiv_pos_site_id
 _symmetry_equiv_pos_as_xyz
  1  'x, y, z'
loop_
 _atom_site_type_symbol
 _atom_site_label
 _atom_site_symmetry_multiplicity
 _atom_site_fract_x
 _atom_site_fract_y
 _atom_site_fract_z
 _atom_site_occupancy
  Sc  Sc0  1  0.00000032  0.99999964  0.99999973  1.0
  Ga  Ga1  1  0.49999993  0.50000007  0.50000006  1.0
  O  O2  1  0.50000000  0.50000007  0.00000035  1.0
  O  O3  1  0.49999972  0.99999998  0.50000004  1.0
  O  O4  1  0.00000003  0.50000024  0.49999982  1.0
