# generated using pymatgen
data_ScHO2
_symmetry_space_group_name_H-M   'P 1'
_cell_length_a   3.20682187
_cell_length_b   4.63018140
_cell_length_c   5.18373492
_cell_angle_alpha   89.99999556
_cell_angle_beta   90.00000069
_cell_angle_gamma   90.00000000
_symmetry_Int_Tables_number   1
_chemical_formula_structural   ScHO2
_chemical_formula_sum   'Sc2 H2 O4'
_cell_volume   76.96896165
_cell_formula_units_Z   2
loop_
 _symmetry_equiv_pos_site_id
 _symmetry_equiv_pos_as_xyz
  1  'x, y, z'
loop_
 _atom_site_type_symbol
 _atom_site_label
 _atom_site_symmetry_multiplicity
 _atom_site_fract_x
 _atom_site_fract_y
 _atom_site_fract_z
 _atom_site_occupancy
  Sc  Sc0  1  0.50000000  0.21985815  0.50109369  1.0
  Sc  Sc1  1  0.00000000  0.78014183  0.00109364  1.0
  H  H2  1  0.50000002  0.31540242  0.02200978  1.0
  H  H3  1  0.99999998  0.68459752  0.52200980  1.0
  O  O4  1  0.00000000  0.51014220  0.63943928  1.0
  O  O5  1  0.50000001  0.48985800  0.13943953  1.0
  O  O6  1  0.99999999  0.98981410  0.35075719  1.0
  O  O7  1  0.50000000  0.01018579  0.85075709  1.0
