# generated using pymatgen
data_ScInI4
_symmetry_space_group_name_H-M   'P 1'
_cell_length_a   12.16102516
_cell_length_b   7.51651183
_cell_length_c   13.29594705
_cell_angle_alpha   84.74990341
_cell_angle_beta   90.00000772
_cell_angle_gamma   89.99995749
_symmetry_Int_Tables_number   1
_chemical_formula_structural   ScInI4
_chemical_formula_sum   'Sc4 In4 I16'
_cell_volume   1210.26371513
_cell_formula_units_Z   4
loop_
 _symmetry_equiv_pos_site_id
 _symmetry_equiv_pos_as_xyz
  1  'x, y, z'
loop_
 _atom_site_type_symbol
 _atom_site_label
 _atom_site_symmetry_multiplicity
 _atom_site_fract_x
 _atom_site_fract_y
 _atom_site_fract_z
 _atom_site_occupancy
  Sc  Sc0  1  0.74999995  0.23149906  0.55862582  1.0
  Sc  Sc1  1  0.25000005  0.76850101  0.44137428  1.0
  Sc  Sc2  1  0.75000000  0.43404997  0.02773868  1.0
  Sc  Sc3  1  0.25000000  0.56595000  0.97226130  1.0
  In  In4  1  0.47706592  0.59528246  0.71498832  1.0
  In  In5  1  0.52293407  0.40471753  0.28501165  1.0
  In  In6  1  0.97706585  0.40471756  0.28501147  1.0
  In  In7  1  0.02293415  0.59528241  0.71498850  1.0
  I  I8  1  0.74999997  0.12247470  0.36608421  1.0
  I  I9  1  0.93167362  0.22683056  0.06379748  1.0
  I  I10  1  0.74999999  0.59244882  0.52202610  1.0
  I  I11  1  0.43619950  0.87021813  0.33814380  1.0
  I  I12  1  0.75000002  0.60145994  0.83643790  1.0
  I  I13  1  0.74999999  0.65487639  0.18126418  1.0
  I  I14  1  0.56832652  0.22683076  0.06379734  1.0
  I  I15  1  0.06832638  0.77316941  0.93620248  1.0
  I  I16  1  0.25000004  0.87752536  0.63391590  1.0
  I  I17  1  0.56380046  0.12978188  0.66185621  1.0
  I  I18  1  0.06380047  0.87021821  0.33814384  1.0
  I  I19  1  0.25000001  0.40755124  0.47797392  1.0
  I  I20  1  0.24999998  0.39854000  0.16356206  1.0
  I  I21  1  0.93619957  0.12978180  0.66185616  1.0
  I  I22  1  0.43167348  0.77316921  0.93620262  1.0
  I  I23  1  0.25000001  0.34512359  0.81873580  1.0
