# generated using pymatgen
data_ScNbO4
_symmetry_space_group_name_H-M   'P 1'
_cell_length_a   4.85781549
_cell_length_b   5.15261211
_cell_length_c   5.78978846
_cell_angle_alpha   90.00000020
_cell_angle_beta   90.00000118
_cell_angle_gamma   90.80372662
_symmetry_Int_Tables_number   1
_chemical_formula_structural   ScNbO4
_chemical_formula_sum   'Sc2 Nb2 O8'
_cell_volume   144.90668819
_cell_formula_units_Z   2
loop_
 _symmetry_equiv_pos_site_id
 _symmetry_equiv_pos_as_xyz
  1  'x, y, z'
loop_
 _atom_site_type_symbol
 _atom_site_label
 _atom_site_symmetry_multiplicity
 _atom_site_fract_x
 _atom_site_fract_y
 _atom_site_fract_z
 _atom_site_occupancy
  Sc  Sc0  1  0.50000000  0.75000004  0.68035542  1.0
  Sc  Sc1  1  0.50000002  0.25000005  0.31964453  1.0
  Nb  Nb2  1  0.00000004  0.74999999  0.18326169  1.0
  Nb  Nb3  1  0.99999999  0.24999999  0.81673827  1.0
  O  O4  1  0.26567286  0.40718971  0.61552631  1.0
  O  O5  1  0.73432714  0.09281035  0.61552634  1.0
  O  O6  1  0.73432713  0.59281030  0.38447365  1.0
  O  O7  1  0.26567284  0.90718966  0.38447372  1.0
  O  O8  1  0.21934035  0.43518632  0.10816105  1.0
  O  O9  1  0.78065967  0.06481368  0.10816118  1.0
  O  O10  1  0.78065964  0.56481362  0.89183895  1.0
  O  O11  1  0.21934034  0.93518628  0.89183887  1.0
