# generated using pymatgen
data_ScOF
_symmetry_space_group_name_H-M   'P 1'
_cell_length_a   3.57231784
_cell_length_b   6.40067072
_cell_length_c   3.57228439
_cell_angle_alpha   106.20440788
_cell_angle_beta   120.00039800
_cell_angle_gamma   89.99990855
_symmetry_Int_Tables_number   1
_chemical_formula_structural   ScOF
_chemical_formula_sum   'Sc2 O2 F2'
_cell_volume   66.96441781
_cell_formula_units_Z   2
loop_
 _symmetry_equiv_pos_site_id
 _symmetry_equiv_pos_as_xyz
  1  'x, y, z'
loop_
 _atom_site_type_symbol
 _atom_site_label
 _atom_site_symmetry_multiplicity
 _atom_site_fract_x
 _atom_site_fract_y
 _atom_site_fract_z
 _atom_site_occupancy
  Sc  Sc0  1  0.76079421  0.28238704  0.52158742  1.0
  Sc  Sc1  1  0.23920587  0.71761301  0.47841270  1.0
  O  O2  1  0.12266015  0.36799591  0.24532016  1.0
  O  O3  1  0.87733986  0.63200409  0.75467993  1.0
  F  F4  1  0.37135881  0.11412371  0.74271663  1.0
  F  F5  1  0.62864109  0.88587623  0.25728316  1.0
