# generated using pymatgen
data_ScSBr
_symmetry_space_group_name_H-M   'P 1'
_cell_length_a   5.11575008
_cell_length_b   3.77501087
_cell_length_c   8.97069748
_cell_angle_alpha   89.99980473
_cell_angle_beta   89.99894731
_cell_angle_gamma   90.00016850
_symmetry_Int_Tables_number   1
_chemical_formula_structural   ScSBr
_chemical_formula_sum   'Sc2 S2 Br2'
_cell_volume   173.24221879
_cell_formula_units_Z   2
loop_
 _symmetry_equiv_pos_site_id
 _symmetry_equiv_pos_as_xyz
  1  'x, y, z'
loop_
 _atom_site_type_symbol
 _atom_site_label
 _atom_site_symmetry_multiplicity
 _atom_site_fract_x
 _atom_site_fract_y
 _atom_site_fract_z
 _atom_site_occupancy
  Sc  Sc0  1  0.75000386  0.74999869  0.61663248  1.0
  Sc  Sc1  1  0.24999592  0.24999161  0.38336581  1.0
  S  S2  1  0.75000055  0.25000111  0.42033874  1.0
  S  S3  1  0.25000084  0.75000281  0.57966093  1.0
  Br  Br4  1  0.25000418  0.75000853  0.17213092  1.0
  Br  Br5  1  0.74999465  0.24999725  0.82787112  1.0
