# generated using pymatgen
data_ScVO4
_symmetry_space_group_name_H-M   'P 1'
_cell_length_a   5.17263044
_cell_length_b   5.17262999
_cell_length_c   6.59396609
_cell_angle_alpha   89.99952859
_cell_angle_beta   90.00047170
_cell_angle_gamma   112.29928346
_symmetry_Int_Tables_number   1
_chemical_formula_structural   ScVO4
_chemical_formula_sum   'Sc2 V2 O8'
_cell_volume   163.23451286
_cell_formula_units_Z   2
loop_
 _symmetry_equiv_pos_site_id
 _symmetry_equiv_pos_as_xyz
  1  'x, y, z'
loop_
 _atom_site_type_symbol
 _atom_site_label
 _atom_site_symmetry_multiplicity
 _atom_site_fract_x
 _atom_site_fract_y
 _atom_site_fract_z
 _atom_site_occupancy
  Sc  Sc0  1  0.99999696  0.00000290  0.50000823  1.0
  Sc  Sc1  1  0.99999711  0.00000309  0.99999174  1.0
  V  V2  1  0.64172784  0.35827206  0.25000251  1.0
  V  V3  1  0.35831414  0.64168558  0.74999772  1.0
  O  O4  1  0.24196305  0.75803699  0.54258944  1.0
  O  O5  1  0.75802019  0.24197987  0.04261326  1.0
  O  O6  1  0.75801864  0.24198145  0.45738332  1.0
  O  O7  1  0.24196159  0.75803851  0.95741383  1.0
  O  O8  1  0.73495146  0.78811214  0.75000069  1.0
  O  O9  1  0.26505240  0.21189112  0.24999929  1.0
  O  O10  1  0.78810876  0.73494764  0.24999929  1.0
  O  O11  1  0.21188786  0.26504866  0.75000067  1.0
