# generated using pymatgen
data_ScVO4
_symmetry_space_group_name_H-M   'P 1'
_cell_length_a   5.76120926
_cell_length_b   5.76119601
_cell_length_c   5.76119880
_cell_angle_alpha   106.87530198
_cell_angle_beta   106.87488788
_cell_angle_gamma   114.79820010
_symmetry_Int_Tables_number   1
_chemical_formula_structural   ScVO4
_chemical_formula_sum   'Sc2 V2 O8'
_cell_volume   146.24030168
_cell_formula_units_Z   2
loop_
 _symmetry_equiv_pos_site_id
 _symmetry_equiv_pos_as_xyz
  1  'x, y, z'
loop_
 _atom_site_type_symbol
 _atom_site_label
 _atom_site_symmetry_multiplicity
 _atom_site_fract_x
 _atom_site_fract_y
 _atom_site_fract_z
 _atom_site_occupancy
  Sc  Sc0  1  0.12499954  0.87500063  0.24999993  1.0
  Sc  Sc1  1  0.87500175  0.12499972  0.75000075  1.0
  V  V2  1  0.37499316  0.62499759  0.74999788  1.0
  V  V3  1  0.62500617  0.37500136  0.25000122  1.0
  O  O4  1  0.80498117  0.74848432  0.44350246  1.0
  O  O5  1  0.36147823  0.80498230  0.55649649  1.0
  O  O6  1  0.74848904  0.80498357  0.94350473  1.0
  O  O7  1  0.80498031  0.36147811  0.05649792  1.0
  O  O8  1  0.63852193  0.19501948  0.44350278  1.0
  O  O9  1  0.19501826  0.25151573  0.55649649  1.0
  O  O10  1  0.25151281  0.19501740  0.05649531  1.0
  O  O11  1  0.19501962  0.63852279  0.94350304  1.0
