# generated using pymatgen
data_Si3Bi2O9
_symmetry_space_group_name_H-M   'P 1'
_cell_length_a   6.89106415
_cell_length_b   6.89106113
_cell_length_c   9.79934329
_cell_angle_alpha   90.00000505
_cell_angle_beta   90.00000034
_cell_angle_gamma   120.00001930
_symmetry_Int_Tables_number   1
_chemical_formula_structural   Si3Bi2O9
_chemical_formula_sum   'Si6 Bi4 O18'
_cell_volume   402.99523836
_cell_formula_units_Z   2
loop_
 _symmetry_equiv_pos_site_id
 _symmetry_equiv_pos_as_xyz
  1  'x, y, z'
loop_
 _atom_site_type_symbol
 _atom_site_label
 _atom_site_symmetry_multiplicity
 _atom_site_fract_x
 _atom_site_fract_y
 _atom_site_fract_z
 _atom_site_occupancy
  Si  Si0  1  0.72265697  0.94082914  0.74999999  1.0
  Si  Si1  1  0.78182830  0.72265795  0.24999998  1.0
  Si  Si2  1  0.94083057  0.21817294  0.25000002  1.0
  Si  Si3  1  0.05916953  0.78182703  0.74999999  1.0
  Si  Si4  1  0.21817181  0.27734197  0.75000002  1.0
  Si  Si5  1  0.27734322  0.05917081  0.25000003  1.0
  Bi  Bi6  1  0.33333333  0.66666667  0.48090154  1.0
  Bi  Bi7  1  0.66666667  0.33333333  0.98090155  1.0
  Bi  Bi8  1  0.66666667  0.33333333  0.51909847  1.0
  Bi  Bi9  1  0.33333333  0.66666667  0.01909844  1.0
  O  O10  1  0.41293639  0.07021368  0.38888109  1.0
  O  O11  1  0.34272191  0.41293549  0.88888120  1.0
  O  O12  1  0.07021293  0.65727695  0.88888125  1.0
  O  O13  1  0.92978710  0.34272294  0.38888120  1.0
  O  O14  1  0.65727812  0.58706447  0.38888127  1.0
  O  O15  1  0.58706364  0.92978620  0.88888112  1.0
  O  O16  1  0.58706362  0.92978619  0.61111891  1.0
  O  O17  1  0.65727815  0.58706446  0.11111879  1.0
  O  O18  1  0.92978711  0.34272294  0.11111877  1.0
  O  O19  1  0.07021295  0.65727687  0.61111880  1.0
  O  O20  1  0.19404065  0.24561641  0.25000000  1.0
  O  O21  1  0.94842345  0.19403909  0.75000000  1.0
  O  O22  1  0.24561505  0.05157533  0.74999999  1.0
  O  O23  1  0.75438496  0.94842453  0.24999999  1.0
  O  O24  1  0.05157652  0.80596076  0.25000001  1.0
  O  O25  1  0.80595938  0.75438347  0.74999998  1.0
  O  O26  1  0.41293644  0.07021370  0.11111891  1.0
  O  O27  1  0.34272191  0.41293544  0.61111869  1.0
