# generated using pymatgen
data_SiAgBiO4
_symmetry_space_group_name_H-M   'P 1'
_cell_length_a   5.21798950
_cell_length_b   7.32702467
_cell_length_c   11.82549698
_cell_angle_alpha   89.99998516
_cell_angle_beta   90.00000005
_cell_angle_gamma   90.00000072
_symmetry_Int_Tables_number   1
_chemical_formula_structural   SiAgBiO4
_chemical_formula_sum   'Si4 Ag4 Bi4 O16'
_cell_volume   452.11639512
_cell_formula_units_Z   4
loop_
 _symmetry_equiv_pos_site_id
 _symmetry_equiv_pos_as_xyz
  1  'x, y, z'
loop_
 _atom_site_type_symbol
 _atom_site_label
 _atom_site_symmetry_multiplicity
 _atom_site_fract_x
 _atom_site_fract_y
 _atom_site_fract_z
 _atom_site_occupancy
  Si  Si0  1  0.74872562  0.75236024  0.07185694  1.0
  Si  Si1  1  0.24872556  0.25236048  0.42814303  1.0
  Si  Si2  1  0.74872564  0.74763946  0.57185690  1.0
  Si  Si3  1  0.24872562  0.24763979  0.92814313  1.0
  Ag  Ag4  1  0.24133847  0.98981722  0.16957677  1.0
  Ag  Ag5  1  0.74133837  0.48981730  0.33042320  1.0
  Ag  Ag6  1  0.24133839  0.51018271  0.66957680  1.0
  Ag  Ag7  1  0.74133845  0.01018284  0.83042323  1.0
  Bi  Bi8  1  0.72489598  0.25750675  0.11818664  1.0
  Bi  Bi9  1  0.22489596  0.75750670  0.38181343  1.0
  Bi  Bi10  1  0.72489594  0.24249328  0.61818656  1.0
  Bi  Bi11  1  0.22489604  0.74249327  0.88181338  1.0
  O  O12  1  0.11467247  0.24872342  0.05647262  1.0
  O  O13  1  0.06484298  0.75836878  0.04896287  1.0
  O  O14  1  0.67159339  0.56689155  0.14099798  1.0
  O  O15  1  0.67628931  0.93819573  0.14206326  1.0
  O  O16  1  0.17628923  0.43819566  0.35793682  1.0
  O  O17  1  0.17159329  0.06689143  0.35900192  1.0
  O  O18  1  0.56484289  0.25836874  0.45103706  1.0
  O  O19  1  0.61467249  0.74872334  0.44352741  1.0
  O  O20  1  0.11467245  0.25127654  0.55647263  1.0
  O  O21  1  0.06484287  0.74163122  0.54896296  1.0
  O  O22  1  0.67159328  0.93310862  0.64099805  1.0
  O  O23  1  0.67628928  0.56180430  0.64206325  1.0
  O  O24  1  0.17628926  0.06180423  0.85793674  1.0
  O  O25  1  0.17159338  0.43310850  0.85900196  1.0
  O  O26  1  0.56484287  0.24163124  0.95103712  1.0
  O  O27  1  0.61467251  0.75127666  0.94352734  1.0
