# generated using pymatgen
data_SiPbN2
_symmetry_space_group_name_H-M   'P 1'
_cell_length_a   5.41028967
_cell_length_b   7.15091316
_cell_length_c   6.59242465
_cell_angle_alpha   90.00014180
_cell_angle_beta   89.99985665
_cell_angle_gamma   106.58182042
_symmetry_Int_Tables_number   1
_chemical_formula_structural   SiPbN2
_chemical_formula_sum   'Si4 Pb4 N8'
_cell_volume   244.44433175
_cell_formula_units_Z   4
loop_
 _symmetry_equiv_pos_site_id
 _symmetry_equiv_pos_as_xyz
  1  'x, y, z'
loop_
 _atom_site_type_symbol
 _atom_site_label
 _atom_site_symmetry_multiplicity
 _atom_site_fract_x
 _atom_site_fract_y
 _atom_site_fract_z
 _atom_site_occupancy
  Si  Si0  1  0.11403090  0.10855587  0.14064609  1.0
  Si  Si1  1  0.88596890  0.89144437  0.85935398  1.0
  Si  Si2  1  0.38596986  0.89144569  0.64064357  1.0
  Si  Si3  1  0.61402997  0.10855456  0.35935637  1.0
  Pb  Pb4  1  0.70733937  0.33313588  0.90772738  1.0
  Pb  Pb5  1  0.79266057  0.66686436  0.40772750  1.0
  Pb  Pb6  1  0.29266060  0.66686434  0.09227259  1.0
  Pb  Pb7  1  0.20733941  0.33313588  0.59227252  1.0
  N  N8  1  0.94252948  0.18964011  0.32449706  1.0
  N  N9  1  0.55747374  0.81035995  0.82449868  1.0
  N  N10  1  0.05747072  0.81036010  0.67550279  1.0
  N  N11  1  0.44252646  0.18964024  0.17550147  1.0
  N  N12  1  0.00608278  0.15001572  0.89290272  1.0
  N  N13  1  0.50608273  0.15001540  0.60709708  1.0
  N  N14  1  0.99391723  0.84998461  0.10709729  1.0
  N  N15  1  0.49391728  0.84998493  0.39290293  1.0
