# generated using pymatgen
data_Sm2TeO6
_symmetry_space_group_name_H-M   'P 1'
_cell_length_a   9.27025594
_cell_length_b   9.27029984
_cell_length_c   5.37375919
_cell_angle_alpha   89.99994023
_cell_angle_beta   89.99995053
_cell_angle_gamma   119.99998117
_symmetry_Int_Tables_number   1
_chemical_formula_structural   Sm2TeO6
_chemical_formula_sum   'Sm6 Te3 O18'
_cell_volume   399.93961190
_cell_formula_units_Z   3
loop_
 _symmetry_equiv_pos_site_id
 _symmetry_equiv_pos_as_xyz
  1  'x, y, z'
loop_
 _atom_site_type_symbol
 _atom_site_label
 _atom_site_symmetry_multiplicity
 _atom_site_fract_x
 _atom_site_fract_y
 _atom_site_fract_z
 _atom_site_occupancy
  Sm  Sm0  1  0.99999977  0.61365226  0.00000030  1.0
  Sm  Sm1  1  0.99999962  0.27651159  0.49999967  1.0
  Sm  Sm2  1  0.38634238  0.38634524  0.99999808  1.0
  Sm  Sm3  1  0.27650779  0.00000040  0.50000040  1.0
  Sm  Sm4  1  0.72349059  0.72349277  0.49999889  1.0
  Sm  Sm5  1  0.61365728  0.00000231  0.00000169  1.0
  Te  Te6  1  0.33333333  0.66666667  0.49429673  1.0
  Te  Te7  1  0.99999592  0.00000465  0.99999875  1.0
  Te  Te8  1  0.66666667  0.33333333  0.50570397  1.0
  O  O9  1  0.07141058  0.87523136  0.79135858  1.0
  O  O10  1  0.22994773  0.76265735  0.28305146  1.0
  O  O11  1  0.13589355  0.54583753  0.70339095  1.0
  O  O12  1  0.40994134  0.86411097  0.70339217  1.0
  O  O13  1  0.23734357  0.46729809  0.28304665  1.0
  O  O14  1  0.12476619  0.19617199  0.79136139  1.0
  O  O15  1  0.19617933  0.12476766  0.20864134  1.0
  O  O16  1  0.53270272  0.77004990  0.28304704  1.0
  O  O17  1  0.45416641  0.59005463  0.70338701  1.0
  O  O18  1  0.80382222  0.92858564  0.79136516  1.0
  O  O19  1  0.46729353  0.23734672  0.71695074  1.0
  O  O20  1  0.59005876  0.45416838  0.29660461  1.0
  O  O21  1  0.54582733  0.13588827  0.29661023  1.0
  O  O22  1  0.77005271  0.53270848  0.71694392  1.0
  O  O23  1  0.92859507  0.80382177  0.20864424  1.0
  O  O24  1  0.76265415  0.22995348  0.71695226  1.0
  O  O25  1  0.86410613  0.40994224  0.29660678  1.0
  O  O26  1  0.87523222  0.07140286  0.20864600  1.0
