# generated using pymatgen
data_Sm3Ge6N11
_symmetry_space_group_name_H-M   'P 1'
_cell_length_a   10.43605054
_cell_length_b   10.43605069
_cell_length_c   5.16401869
_cell_angle_alpha   90.00000050
_cell_angle_beta   89.99999669
_cell_angle_gamma   89.99999676
_symmetry_Int_Tables_number   1
_chemical_formula_structural   Sm3Ge6N11
_chemical_formula_sum   'Sm6 Ge12 N22'
_cell_volume   562.41922674
_cell_formula_units_Z   2
loop_
 _symmetry_equiv_pos_site_id
 _symmetry_equiv_pos_as_xyz
  1  'x, y, z'
loop_
 _atom_site_type_symbol
 _atom_site_label
 _atom_site_symmetry_multiplicity
 _atom_site_fract_x
 _atom_site_fract_y
 _atom_site_fract_z
 _atom_site_occupancy
  Sm  Sm0  1  0.50000011  0.50000003  0.97011832  1.0
  Sm  Sm1  1  0.99999992  0.99999990  0.97011834  1.0
  Sm  Sm2  1  0.81801209  0.31801223  0.97851700  1.0
  Sm  Sm3  1  0.31801233  0.18198769  0.97851714  1.0
  Sm  Sm4  1  0.68198793  0.81801212  0.97851717  1.0
  Sm  Sm5  1  0.18198772  0.68198783  0.97851721  1.0
  Ge  Ge6  1  0.37976926  0.87976925  0.04540605  1.0
  Ge  Ge7  1  0.87976852  0.62023148  0.04540583  1.0
  Ge  Ge8  1  0.12023027  0.37976972  0.04540627  1.0
  Ge  Ge9  1  0.62023100  0.12023098  0.04540604  1.0
  Ge  Ge10  1  0.70714942  0.57991196  0.52794930  1.0
  Ge  Ge11  1  0.29285081  0.42008824  0.52794966  1.0
  Ge  Ge12  1  0.42008835  0.70714933  0.52794962  1.0
  Ge  Ge13  1  0.57991200  0.29285067  0.52794931  1.0
  Ge  Ge14  1  0.92008801  0.79285059  0.52794930  1.0
  Ge  Ge15  1  0.79285061  0.07991174  0.52794937  1.0
  Ge  Ge16  1  0.20714928  0.92008802  0.52794964  1.0
  Ge  Ge17  1  0.07991169  0.20714919  0.52794964  1.0
  N  N18  1  0.49999975  0.99999979  0.09857117  1.0
  N  N19  1  0.00000111  0.49999897  0.09857130  1.0
  N  N20  1  0.34878669  0.84878676  0.69359680  1.0
  N  N21  1  0.84878674  0.65121325  0.69359691  1.0
  N  N22  1  0.15121324  0.34878678  0.69359680  1.0
  N  N23  1  0.65121326  0.15121330  0.69359675  1.0
  N  N24  1  0.71462795  0.58399330  0.16835623  1.0
  N  N25  1  0.28537203  0.41600669  0.16835619  1.0
  N  N26  1  0.41600665  0.71462794  0.16835630  1.0
  N  N27  1  0.58399329  0.28537206  0.16835617  1.0
  N  N28  1  0.91600672  0.78537205  0.16835625  1.0
  N  N29  1  0.78537206  0.08399335  0.16835616  1.0
  N  N30  1  0.21462798  0.91600674  0.16835631  1.0
  N  N31  1  0.08399336  0.21462796  0.16835621  1.0
  N  N32  1  0.57940394  0.68311100  0.66989765  1.0
  N  N33  1  0.42059569  0.31688905  0.66989759  1.0
  N  N34  1  0.31688899  0.57940393  0.66989765  1.0
  N  N35  1  0.68311085  0.42059575  0.66989765  1.0
  N  N36  1  0.18311091  0.07940423  0.66989774  1.0
  N  N37  1  0.07940431  0.81688909  0.66989777  1.0
  N  N38  1  0.92059610  0.18311102  0.66989754  1.0
  N  N39  1  0.81688903  0.92059599  0.66989757  1.0
