# generated using pymatgen
data_Sm3Si6N11
_symmetry_space_group_name_H-M   'P 1'
_cell_length_a   10.06421678
_cell_length_b   10.06421672
_cell_length_c   4.89391523
_cell_angle_alpha   90.00000000
_cell_angle_beta   89.99999977
_cell_angle_gamma   89.99999943
_symmetry_Int_Tables_number   1
_chemical_formula_structural   Sm3Si6N11
_chemical_formula_sum   'Sm6 Si12 N22'
_cell_volume   495.69713110
_cell_formula_units_Z   2
loop_
 _symmetry_equiv_pos_site_id
 _symmetry_equiv_pos_as_xyz
  1  'x, y, z'
loop_
 _atom_site_type_symbol
 _atom_site_label
 _atom_site_symmetry_multiplicity
 _atom_site_fract_x
 _atom_site_fract_y
 _atom_site_fract_z
 _atom_site_occupancy
  Sm  Sm0  1  0.49999994  0.49999996  0.34372561  1.0
  Sm  Sm1  1  0.00000007  0.00000000  0.34372560  1.0
  Sm  Sm2  1  0.68249150  0.18249156  0.35729010  1.0
  Sm  Sm3  1  0.18249163  0.31750840  0.35729011  1.0
  Sm  Sm4  1  0.81750851  0.68249152  0.35729009  1.0
  Sm  Sm5  1  0.31750838  0.81750844  0.35729010  1.0
  Si  Si6  1  0.11815707  0.61815706  0.40693503  1.0
  Si  Si7  1  0.61815657  0.88184341  0.40693515  1.0
  Si  Si8  1  0.38184278  0.11815721  0.40693502  1.0
  Si  Si9  1  0.88184328  0.38184327  0.40693512  1.0
  Si  Si10  1  0.57957428  0.70852230  0.89489294  1.0
  Si  Si11  1  0.42042550  0.29147757  0.89489279  1.0
  Si  Si12  1  0.29147757  0.57957436  0.89489281  1.0
  Si  Si13  1  0.70852232  0.42042556  0.89489289  1.0
  Si  Si14  1  0.79147771  0.92042562  0.89489294  1.0
  Si  Si15  1  0.92042572  0.20852235  0.89489288  1.0
  Si  Si16  1  0.07957452  0.79147760  0.89489281  1.0
  Si  Si17  1  0.20852245  0.07957442  0.89489278  1.0
  N  N18  1  0.50000056  0.99999945  0.43511688  1.0
  N  N19  1  0.99999967  0.49999970  0.43511685  1.0
  N  N20  1  0.42068699  0.68034112  0.01165829  1.0
  N  N21  1  0.57931330  0.31965898  0.01165836  1.0
  N  N22  1  0.31965895  0.42068685  0.01165834  1.0
  N  N23  1  0.68034107  0.57931320  0.01165834  1.0
  N  N24  1  0.81965890  0.07931310  0.01165829  1.0
  N  N25  1  0.07931305  0.18034110  0.01165831  1.0
  N  N26  1  0.92068669  0.81965897  0.01165836  1.0
  N  N27  1  0.18034103  0.92068680  0.01165834  1.0
  N  N28  1  0.84659579  0.34659582  0.06011738  1.0
  N  N29  1  0.34659580  0.15340422  0.06011737  1.0
  N  N30  1  0.65340422  0.84659580  0.06011737  1.0
  N  N31  1  0.15340419  0.65340422  0.06011739  1.0
  N  N32  1  0.22651672  0.07767036  0.54141240  1.0
  N  N33  1  0.07767035  0.77348328  0.54141242  1.0
  N  N34  1  0.92232962  0.22651672  0.54141244  1.0
  N  N35  1  0.77348325  0.92232964  0.54141241  1.0
  N  N36  1  0.72651673  0.42232965  0.54141243  1.0
  N  N37  1  0.27348327  0.57767037  0.54141244  1.0
  N  N38  1  0.42232966  0.27348329  0.54141242  1.0
  N  N39  1  0.57767037  0.72651674  0.54141242  1.0
