# generated using pymatgen
data_SmDyO3
_symmetry_space_group_name_H-M   'P 1'
_cell_length_a   6.52387752
_cell_length_b   6.52387743
_cell_length_c   12.91678252
_cell_angle_alpha   90.00000070
_cell_angle_beta   89.99999982
_cell_angle_gamma   120.00005705
_symmetry_Int_Tables_number   1
_chemical_formula_structural   SmDyO3
_chemical_formula_sum   'Sm6 Dy6 O18'
_cell_volume   476.09796084
_cell_formula_units_Z   6
loop_
 _symmetry_equiv_pos_site_id
 _symmetry_equiv_pos_as_xyz
  1  'x, y, z'
loop_
 _atom_site_type_symbol
 _atom_site_label
 _atom_site_symmetry_multiplicity
 _atom_site_fract_x
 _atom_site_fract_y
 _atom_site_fract_z
 _atom_site_occupancy
  Sm  Sm0  1  0.33333333  0.66666667  0.23644183  1.0
  Sm  Sm1  1  0.00000004  0.00000005  0.27126238  1.0
  Sm  Sm2  1  0.99999995  0.99999996  0.77126239  1.0
  Sm  Sm3  1  0.33333333  0.66666667  0.73644183  1.0
  Sm  Sm4  1  0.66666667  0.33333333  0.73644183  1.0
  Sm  Sm5  1  0.66666667  0.33333333  0.23644183  1.0
  Dy  Dy6  1  0.00000006  0.66666667  0.50149427  1.0
  Dy  Dy7  1  0.99999994  0.33333333  0.00149427  1.0
  Dy  Dy8  1  0.33333333  0.33333333  0.50149429  1.0
  Dy  Dy9  1  0.66666667  0.66666667  0.00149429  1.0
  Dy  Dy10  1  0.33333333  0.99999992  0.00149428  1.0
  Dy  Dy11  1  0.66666667  0.00000007  0.50149428  1.0
  O  O12  1  0.00000007  0.69392508  0.67350941  1.0
  O  O13  1  0.00000007  0.63717601  0.33101417  1.0
  O  O14  1  0.99999993  0.36282400  0.83101416  1.0
  O  O15  1  0.99999992  0.30607493  0.17350940  1.0
  O  O16  1  0.33333333  0.66666667  0.02776929  1.0
  O  O17  1  0.99999984  0.99999986  0.46987679  1.0
  O  O18  1  0.00000017  0.00000015  0.96987680  1.0
  O  O19  1  0.33333333  0.66666667  0.52776930  1.0
  O  O20  1  0.30607509  0.30607508  0.67350942  1.0
  O  O21  1  0.36282407  0.36282405  0.33101416  1.0
  O  O22  1  0.30607494  0.99999992  0.17350941  1.0
  O  O23  1  0.63717594  0.63717594  0.83101416  1.0
  O  O24  1  0.69392490  0.69392491  0.17350942  1.0
  O  O25  1  0.36282401  0.99999993  0.83101416  1.0
  O  O26  1  0.66666667  0.33333333  0.52776931  1.0
  O  O27  1  0.66666667  0.33333333  0.02776930  1.0
  O  O28  1  0.63717600  0.00000007  0.33101416  1.0
  O  O29  1  0.69392506  0.00000006  0.67350941  1.0
