# generated using pymatgen
data_SmNbO4
_symmetry_space_group_name_H-M   'P 1'
_cell_length_a   6.27655033
_cell_length_b   6.27655169
_cell_length_c   6.27655085
_cell_angle_alpha   106.87463099
_cell_angle_beta   106.87462921
_cell_angle_gamma   114.79944039
_symmetry_Int_Tables_number   1
_chemical_formula_structural   SmNbO4
_chemical_formula_sum   'Sm2 Nb2 O8'
_cell_volume   189.09867650
_cell_formula_units_Z   2
loop_
 _symmetry_equiv_pos_site_id
 _symmetry_equiv_pos_as_xyz
  1  'x, y, z'
loop_
 _atom_site_type_symbol
 _atom_site_label
 _atom_site_symmetry_multiplicity
 _atom_site_fract_x
 _atom_site_fract_y
 _atom_site_fract_z
 _atom_site_occupancy
  Sm  Sm0  1  0.87499993  0.12500003  0.74999999  1.0
  Sm  Sm1  1  0.12500007  0.87499997  0.25000002  1.0
  Nb  Nb2  1  0.62499991  0.37500009  0.25000001  1.0
  Nb  Nb3  1  0.37500010  0.62499991  0.74999998  1.0
  O  O4  1  0.80613564  0.36686519  0.06072942  1.0
  O  O5  1  0.80613546  0.74540660  0.43927028  1.0
  O  O6  1  0.63313484  0.19386441  0.43927057  1.0
  O  O7  1  0.19386454  0.25459341  0.56072972  1.0
  O  O8  1  0.19386435  0.63313480  0.93927057  1.0
  O  O9  1  0.25459339  0.19386451  0.06072971  1.0
  O  O10  1  0.74540661  0.80613549  0.93927028  1.0
  O  O11  1  0.36686517  0.80613560  0.56072944  1.0
