# generated using pymatgen
data_SmPO4
_symmetry_space_group_name_H-M   'P 1'
_cell_length_a   5.89335844
_cell_length_b   5.89335814
_cell_length_c   5.89336293
_cell_angle_alpha   105.81178079
_cell_angle_beta   105.81178171
_cell_angle_gamma   117.06778977
_symmetry_Int_Tables_number   1
_chemical_formula_structural   SmPO4
_chemical_formula_sum   'Sm2 P2 O8'
_cell_volume   155.46424330
_cell_formula_units_Z   2
loop_
 _symmetry_equiv_pos_site_id
 _symmetry_equiv_pos_as_xyz
  1  'x, y, z'
loop_
 _atom_site_type_symbol
 _atom_site_label
 _atom_site_symmetry_multiplicity
 _atom_site_fract_x
 _atom_site_fract_y
 _atom_site_fract_z
 _atom_site_occupancy
  Sm  Sm0  1  0.87500000  0.12499999  0.74999999  1.0
  Sm  Sm1  1  0.12500000  0.87500001  0.25000001  1.0
  P  P2  1  0.62499963  0.37500045  0.25000010  1.0
  P  P3  1  0.37500035  0.62499953  0.74999990  1.0
  O  O4  1  0.78172225  0.35981384  0.07809150  1.0
  O  O5  1  0.78172203  0.70363064  0.42190802  1.0
  O  O6  1  0.64018617  0.21827780  0.42190847  1.0
  O  O7  1  0.21827796  0.29636937  0.57809198  1.0
  O  O8  1  0.21827777  0.64018616  0.92190851  1.0
  O  O9  1  0.29636928  0.21827791  0.07809193  1.0
  O  O10  1  0.70363074  0.78172210  0.92190807  1.0
  O  O11  1  0.35981382  0.78172220  0.57809153  1.0
