# generated using pymatgen
data_SmSbO4
_symmetry_space_group_name_H-M   'P 1'
_cell_length_a   5.18897970
_cell_length_b   5.26833364
_cell_length_c   13.77903593
_cell_angle_alpha   68.08995744
_cell_angle_beta   89.99999919
_cell_angle_gamma   89.99999994
_symmetry_Int_Tables_number   1
_chemical_formula_structural   SmSbO4
_chemical_formula_sum   'Sm4 Sb4 O16'
_cell_volume   349.47394674
_cell_formula_units_Z   4
loop_
 _symmetry_equiv_pos_site_id
 _symmetry_equiv_pos_as_xyz
  1  'x, y, z'
loop_
 _atom_site_type_symbol
 _atom_site_label
 _atom_site_symmetry_multiplicity
 _atom_site_fract_x
 _atom_site_fract_y
 _atom_site_fract_z
 _atom_site_occupancy
  Sm  Sm0  1  0.75683219  0.66579701  0.33246623  1.0
  Sm  Sm1  1  0.74316780  0.66579696  0.83246632  1.0
  Sm  Sm2  1  0.24316781  0.33420307  0.66753368  1.0
  Sm  Sm3  1  0.25683222  0.33420297  0.16753377  1.0
  Sb  Sb4  1  0.75032579  0.92865501  0.06990930  1.0
  Sb  Sb5  1  0.74967418  0.92865537  0.56990893  1.0
  Sb  Sb6  1  0.24967422  0.07134466  0.93009107  1.0
  Sb  Sb7  1  0.25032578  0.07134496  0.43009070  1.0
  O  O8  1  0.43234285  0.74311072  0.04338138  1.0
  O  O9  1  0.06765710  0.74311053  0.54338150  1.0
  O  O10  1  0.56765712  0.25688948  0.95661851  1.0
  O  O11  1  0.93234282  0.25688926  0.45661860  1.0
  O  O12  1  0.60269838  0.02993081  0.18157133  1.0
  O  O13  1  0.89730171  0.02993094  0.68157141  1.0
  O  O14  1  0.39730172  0.97006914  0.81842856  1.0
  O  O15  1  0.10269839  0.97006911  0.31842869  1.0
  O  O16  1  0.06863407  0.16433451  0.04669547  1.0
  O  O17  1  0.43136600  0.16433451  0.54669557  1.0
  O  O18  1  0.93136601  0.83566552  0.95330442  1.0
  O  O19  1  0.56863404  0.83566546  0.45330455  1.0
  O  O20  1  0.89493794  0.60092212  0.17879221  1.0
  O  O21  1  0.60506194  0.60092194  0.67879232  1.0
  O  O22  1  0.10506198  0.39907813  0.82120770  1.0
  O  O23  1  0.39493796  0.39907783  0.32120777  1.0
