# generated using pymatgen
data_SmTaO4
_symmetry_space_group_name_H-M   'P 1'
_cell_length_a   6.26884091
_cell_length_b   6.26884225
_cell_length_c   6.26884096
_cell_angle_alpha   106.87645151
_cell_angle_beta   106.87644655
_cell_angle_gamma   114.79560008
_symmetry_Int_Tables_number   1
_chemical_formula_structural   SmTaO4
_chemical_formula_sum   'Sm2 Ta2 O8'
_cell_volume   188.40452142
_cell_formula_units_Z   2
loop_
 _symmetry_equiv_pos_site_id
 _symmetry_equiv_pos_as_xyz
  1  'x, y, z'
loop_
 _atom_site_type_symbol
 _atom_site_label
 _atom_site_symmetry_multiplicity
 _atom_site_fract_x
 _atom_site_fract_y
 _atom_site_fract_z
 _atom_site_occupancy
  Sm  Sm0  1  0.87499992  0.12500004  0.74999998  1.0
  Sm  Sm1  1  0.12500008  0.87499996  0.25000002  1.0
  Ta  Ta2  1  0.62499992  0.37500007  0.25000002  1.0
  Ta  Ta3  1  0.37500009  0.62499993  0.74999999  1.0
  O  O4  1  0.80494292  0.36593191  0.06098885  1.0
  O  O5  1  0.80494281  0.74395452  0.43901090  1.0
  O  O6  1  0.63406810  0.19505710  0.43901115  1.0
  O  O7  1  0.19505720  0.25604548  0.56098910  1.0
  O  O8  1  0.19505707  0.63406808  0.93901114  1.0
  O  O9  1  0.25604548  0.19505719  0.06098911  1.0
  O  O10  1  0.74395452  0.80494282  0.93901089  1.0
  O  O11  1  0.36593190  0.80494289  0.56098885  1.0
