# generated using pymatgen
data_SmYO3
_symmetry_space_group_name_H-M   'P 1'
_cell_length_a   6.53588991
_cell_length_b   6.53588989
_cell_length_c   12.90459454
_cell_angle_alpha   90.00000007
_cell_angle_beta   90.00000009
_cell_angle_gamma   120.00007745
_symmetry_Int_Tables_number   1
_chemical_formula_structural   SmYO3
_chemical_formula_sum   'Sm6 Y6 O18'
_cell_volume   477.40186558
_cell_formula_units_Z   6
loop_
 _symmetry_equiv_pos_site_id
 _symmetry_equiv_pos_as_xyz
  1  'x, y, z'
loop_
 _atom_site_type_symbol
 _atom_site_label
 _atom_site_symmetry_multiplicity
 _atom_site_fract_x
 _atom_site_fract_y
 _atom_site_fract_z
 _atom_site_occupancy
  Sm  Sm0  1  0.00000004  0.66712394  0.50070454  1.0
  Sm  Sm1  1  0.99999996  0.33287606  0.00070454  1.0
  Sm  Sm2  1  0.33287607  0.33287607  0.50070459  1.0
  Sm  Sm3  1  0.66712392  0.66712392  0.00070459  1.0
  Sm  Sm4  1  0.33287606  0.99999997  0.00070454  1.0
  Sm  Sm5  1  0.66712394  0.00000004  0.50070454  1.0
  Y  Y6  1  0.33333333  0.66666667  0.23651153  1.0
  Y  Y7  1  0.00000022  0.00000021  0.26629596  1.0
  Y  Y8  1  0.99999978  0.99999978  0.76629596  1.0
  Y  Y9  1  0.33333333  0.66666667  0.73651154  1.0
  Y  Y10  1  0.66666667  0.33333333  0.73651154  1.0
  Y  Y11  1  0.66666667  0.33333333  0.23651153  1.0
  O  O12  1  0.00000007  0.70055973  0.67813448  1.0
  O  O13  1  0.99999999  0.62454980  0.32630684  1.0
  O  O14  1  0.00000002  0.37545020  0.82630684  1.0
  O  O15  1  0.99999993  0.29944027  0.17813448  1.0
  O  O16  1  0.33333333  0.66666667  0.03763679  1.0
  O  O17  1  0.99999978  0.99999978  0.45758471  1.0
  O  O18  1  0.00000022  0.00000022  0.95758471  1.0
  O  O19  1  0.33333333  0.66666667  0.53763679  1.0
  O  O20  1  0.29944032  0.29944032  0.67813453  1.0
  O  O21  1  0.37544984  0.37544984  0.32630683  1.0
  O  O22  1  0.29944027  0.99999993  0.17813448  1.0
  O  O23  1  0.62455015  0.62455015  0.82630683  1.0
  O  O24  1  0.70055967  0.70055967  0.17813453  1.0
  O  O25  1  0.37545021  0.00000002  0.82630684  1.0
  O  O26  1  0.66666667  0.33333333  0.53763679  1.0
  O  O27  1  0.66666667  0.33333333  0.03763679  1.0
  O  O28  1  0.62454980  0.99999999  0.32630684  1.0
  O  O29  1  0.70055973  0.00000006  0.67813448  1.0
