# generated using pymatgen
data_Sn3Bi2O9
_symmetry_space_group_name_H-M   'P 1'
_cell_length_a   7.37688862
_cell_length_b   7.37689766
_cell_length_c   10.80412611
_cell_angle_alpha   89.99999382
_cell_angle_beta   89.99999569
_cell_angle_gamma   120.00008115
_symmetry_Int_Tables_number   1
_chemical_formula_structural   Sn3Bi2O9
_chemical_formula_sum   'Sn6 Bi4 O18'
_cell_volume   509.17480552
_cell_formula_units_Z   2
loop_
 _symmetry_equiv_pos_site_id
 _symmetry_equiv_pos_as_xyz
  1  'x, y, z'
loop_
 _atom_site_type_symbol
 _atom_site_label
 _atom_site_symmetry_multiplicity
 _atom_site_fract_x
 _atom_site_fract_y
 _atom_site_fract_z
 _atom_site_occupancy
  Sn  Sn0  1  0.68665072  0.90448921  0.75000003  1.0
  Sn  Sn1  1  0.78216183  0.68665376  0.25000004  1.0
  Sn  Sn2  1  0.90449223  0.21783974  0.24999998  1.0
  Sn  Sn3  1  0.09550786  0.78216016  0.75000004  1.0
  Sn  Sn4  1  0.21783814  0.31334630  0.74999990  1.0
  Sn  Sn5  1  0.31334926  0.09551059  0.24999994  1.0
  Bi  Bi6  1  0.33333333  0.66666667  0.47746247  1.0
  Bi  Bi7  1  0.66666667  0.33333333  0.97746252  1.0
  Bi  Bi8  1  0.66666667  0.33333333  0.52253751  1.0
  Bi  Bi9  1  0.33333333  0.66666667  0.02253749  1.0
  O  O10  1  0.45200527  0.08130016  0.40170105  1.0
  O  O11  1  0.37070275  0.45200230  0.90170151  1.0
  O  O12  1  0.08129710  0.62929448  0.90170122  1.0
  O  O13  1  0.91870278  0.37070539  0.40170116  1.0
  O  O14  1  0.62929767  0.54799807  0.40170158  1.0
  O  O15  1  0.54799464  0.91869976  0.90170106  1.0
  O  O16  1  0.54799472  0.91869974  0.59829892  1.0
  O  O17  1  0.62929749  0.54799779  0.09829847  1.0
  O  O18  1  0.91870283  0.37070525  0.09829886  1.0
  O  O19  1  0.08129729  0.62929426  0.59829892  1.0
  O  O20  1  0.20367460  0.28954937  0.25000008  1.0
  O  O21  1  0.91412353  0.20367165  0.75000003  1.0
  O  O22  1  0.28954665  0.08587387  0.75000006  1.0
  O  O23  1  0.71045347  0.91412621  0.24999994  1.0
  O  O24  1  0.08587644  0.79632821  0.25000000  1.0
  O  O25  1  0.79632539  0.71045038  0.74999992  1.0
  O  O26  1  0.45200524  0.08130017  0.09829894  1.0
  O  O27  1  0.37070255  0.45200188  0.59829836  1.0
