# generated using pymatgen
data_Sr2SiS4
_symmetry_space_group_name_H-M   'P 1'
_cell_length_a   6.69254026
_cell_length_b   8.54243987
_cell_length_c   12.21594268
_cell_angle_alpha   90.00000180
_cell_angle_beta   89.99999378
_cell_angle_gamma   90.00000210
_symmetry_Int_Tables_number   1
_chemical_formula_structural   Sr2SiS4
_chemical_formula_sum   'Sr8 Si4 S16'
_cell_volume   698.39305048
_cell_formula_units_Z   4
loop_
 _symmetry_equiv_pos_site_id
 _symmetry_equiv_pos_as_xyz
  1  'x, y, z'
loop_
 _atom_site_type_symbol
 _atom_site_label
 _atom_site_symmetry_multiplicity
 _atom_site_fract_x
 _atom_site_fract_y
 _atom_site_fract_z
 _atom_site_occupancy
  Sr  Sr0  1  0.25000033  0.97611373  0.33198209  1.0
  Sr  Sr1  1  0.74999976  0.02388600  0.66801787  1.0
  Sr  Sr2  1  0.25000028  0.47611392  0.16801798  1.0
  Sr  Sr3  1  0.75000015  0.52388613  0.83198197  1.0
  Sr  Sr4  1  0.24999989  0.62261630  0.56602880  1.0
  Sr  Sr5  1  0.75000041  0.37738419  0.43397172  1.0
  Sr  Sr6  1  0.25000017  0.12261581  0.93397167  1.0
  Sr  Sr7  1  0.74999998  0.87738439  0.06602797  1.0
  Si  Si8  1  0.25000009  0.72452857  0.92838792  1.0
  Si  Si9  1  0.24999989  0.22452860  0.57161196  1.0
  Si  Si10  1  0.74999996  0.77547139  0.42838799  1.0
  Si  Si11  1  0.74999993  0.27547145  0.07161196  1.0
  S  S12  1  0.50676065  0.32771884  0.64311661  1.0
  S  S13  1  0.00676088  0.67228129  0.35688353  1.0
  S  S14  1  0.99323933  0.82771868  0.85688316  1.0
  S  S15  1  0.49323941  0.17228114  0.14311657  1.0
  S  S16  1  0.50676073  0.82771862  0.85688322  1.0
  S  S17  1  0.49323909  0.67228102  0.35688357  1.0
  S  S18  1  0.00676066  0.17228131  0.14311659  1.0
  S  S19  1  0.99323945  0.32771875  0.64311671  1.0
  S  S20  1  0.74999975  0.52148608  0.08765230  1.0
  S  S21  1  0.24999990  0.47851384  0.91234759  1.0
  S  S22  1  0.74999964  0.02148616  0.41234769  1.0
  S  S23  1  0.24999999  0.97851391  0.58765233  1.0
  S  S24  1  0.74999997  0.19624036  0.90564327  1.0
  S  S25  1  0.24999993  0.80375952  0.09435681  1.0
  S  S26  1  0.75000006  0.69624036  0.59435699  1.0
  S  S27  1  0.24999973  0.30375964  0.40564316  1.0
