# generated using pymatgen
data_Sr2TiOF6
_symmetry_space_group_name_H-M   'P 1'
_cell_length_a   7.13862084
_cell_length_b   7.13880314
_cell_length_c   7.01222767
_cell_angle_alpha   62.65890303
_cell_angle_beta   62.66012016
_cell_angle_gamma   77.43151080
_symmetry_Int_Tables_number   1
_chemical_formula_structural   Sr2TiOF6
_chemical_formula_sum   'Sr4 Ti2 O2 F12'
_cell_volume   281.96330627
_cell_formula_units_Z   2
loop_
 _symmetry_equiv_pos_site_id
 _symmetry_equiv_pos_as_xyz
  1  'x, y, z'
loop_
 _atom_site_type_symbol
 _atom_site_label
 _atom_site_symmetry_multiplicity
 _atom_site_fract_x
 _atom_site_fract_y
 _atom_site_fract_z
 _atom_site_occupancy
  Sr  Sr0  1  0.17796163  0.41360033  0.15535345  1.0
  Sr  Sr1  1  0.17560264  0.82780253  0.50337085  1.0
  Sr  Sr2  1  0.82781461  0.17561029  0.00336164  1.0
  Sr  Sr3  1  0.41359896  0.17795143  0.65534670  1.0
  Ti  Ti4  1  0.67679432  0.66809215  0.09030199  1.0
  Ti  Ti5  1  0.66806611  0.67681389  0.59021731  1.0
  O  O6  1  0.58607152  0.73920831  0.36502220  1.0
  O  O7  1  0.73923944  0.58606538  0.86493608  1.0
  F  F8  1  0.15242933  0.07612971  0.11869048  1.0
  F  F9  1  0.57320336  0.38521933  0.75922933  1.0
  F  F10  1  0.61252833  0.95472168  0.92780530  1.0
  F  F11  1  0.38644882  0.76566325  0.77689903  1.0
  F  F12  1  0.95638880  0.75869788  0.98193980  1.0
  F  F13  1  0.44998534  0.16165457  0.27838916  1.0
  F  F14  1  0.16165033  0.44997931  0.77838821  1.0
  F  F15  1  0.95470912  0.61252633  0.42781742  1.0
  F  F16  1  0.76566266  0.38643915  0.27689715  1.0
  F  F17  1  0.38522201  0.57320652  0.25921283  1.0
  F  F18  1  0.07613190  0.15243061  0.61868649  1.0
  F  F19  1  0.75869077  0.95638734  0.48193459  1.0
