# generated using pymatgen
data_Sr3IrO6
_symmetry_space_group_name_H-M   'P 1'
_cell_length_a   5.87205440
_cell_length_b   6.12225097
_cell_length_c   8.43865081
_cell_angle_alpha   90.00000110
_cell_angle_beta   89.54785337
_cell_angle_gamma   89.99999771
_symmetry_Int_Tables_number   1
_chemical_formula_structural   Sr3IrO6
_chemical_formula_sum   'Sr6 Ir2 O12'
_cell_volume   303.36166010
_cell_formula_units_Z   2
loop_
 _symmetry_equiv_pos_site_id
 _symmetry_equiv_pos_as_xyz
  1  'x, y, z'
loop_
 _atom_site_type_symbol
 _atom_site_label
 _atom_site_symmetry_multiplicity
 _atom_site_fract_x
 _atom_site_fract_y
 _atom_site_fract_z
 _atom_site_occupancy
  Sr  Sr0  1  0.00000003  0.49999999  0.50000003  1.0
  Sr  Sr1  1  0.01520491  0.94708384  0.74637018  1.0
  Sr  Sr2  1  0.48479496  0.44708380  0.75362984  1.0
  Sr  Sr3  1  0.49999999  0.00000000  0.99999997  1.0
  Sr  Sr4  1  0.51520491  0.55291602  0.24637014  1.0
  Sr  Sr5  1  0.98479516  0.05291620  0.25362991  1.0
  Ir  Ir6  1  0.00000022  0.50000003  0.99999969  1.0
  Ir  Ir7  1  0.49999959  0.00000020  0.50000040  1.0
  O  O8  1  0.10148069  0.45463180  0.21879603  1.0
  O  O9  1  0.16947734  0.23578495  0.93637638  1.0
  O  O10  1  0.22993138  0.17697616  0.54567911  1.0
  O  O11  1  0.27006870  0.67697628  0.95432092  1.0
  O  O12  1  0.33052269  0.73578491  0.56362360  1.0
  O  O13  1  0.39851932  0.95463177  0.28120394  1.0
  O  O14  1  0.60148066  0.04536819  0.71879586  1.0
  O  O15  1  0.66947743  0.26421516  0.43637629  1.0
  O  O16  1  0.72993118  0.32302368  0.04567914  1.0
  O  O17  1  0.77006889  0.82302364  0.45432077  1.0
  O  O18  1  0.83052260  0.76421519  0.06362370  1.0
  O  O19  1  0.89851936  0.54536820  0.78120411  1.0
