# generated using pymatgen
data_Sr3MoO6
_symmetry_space_group_name_H-M   'P 1'
_cell_length_a   5.86863632
_cell_length_b   6.11079171
_cell_length_c   8.43011205
_cell_angle_alpha   90.00000883
_cell_angle_beta   89.78065234
_cell_angle_gamma   90.00000260
_symmetry_Int_Tables_number   1
_chemical_formula_structural   Sr3MoO6
_chemical_formula_sum   'Sr6 Mo2 O12'
_cell_volume   302.31858239
_cell_formula_units_Z   2
loop_
 _symmetry_equiv_pos_site_id
 _symmetry_equiv_pos_as_xyz
  1  'x, y, z'
loop_
 _atom_site_type_symbol
 _atom_site_label
 _atom_site_symmetry_multiplicity
 _atom_site_fract_x
 _atom_site_fract_y
 _atom_site_fract_z
 _atom_site_occupancy
  Sr  Sr0  1  0.99999999  0.50000002  0.49999999  1.0
  Sr  Sr1  1  0.01399064  0.94935224  0.74544965  1.0
  Sr  Sr2  1  0.48600927  0.44935224  0.75455019  1.0
  Sr  Sr3  1  0.49999998  0.00000002  0.00000000  1.0
  Sr  Sr4  1  0.51399071  0.55064772  0.24544976  1.0
  Sr  Sr5  1  0.98600930  0.05064780  0.25455034  1.0
  Mo  Mo6  1  0.00000001  0.49999989  0.99999997  1.0
  Mo  Mo7  1  0.49999997  0.00000002  0.50000000  1.0
  O  O8  1  0.10268584  0.45348726  0.21658694  1.0
  O  O9  1  0.16635930  0.23717954  0.93503714  1.0
  O  O10  1  0.23202120  0.17415908  0.54576916  1.0
  O  O11  1  0.26797889  0.67415904  0.95423058  1.0
  O  O12  1  0.33364073  0.73717972  0.56496290  1.0
  O  O13  1  0.39731430  0.95348704  0.28341310  1.0
  O  O14  1  0.60268569  0.04651289  0.71658692  1.0
  O  O15  1  0.66635928  0.26282032  0.43503709  1.0
  O  O16  1  0.73202115  0.32584096  0.04576941  1.0
  O  O17  1  0.76797887  0.82584099  0.45423084  1.0
  O  O18  1  0.83364074  0.76282051  0.06496292  1.0
  O  O19  1  0.89731414  0.54651270  0.78341308  1.0
