# generated using pymatgen
data_Sr3SO6
_symmetry_space_group_name_H-M   'P 1'
_cell_length_a   5.72821394
_cell_length_b   5.70391244
_cell_length_c   8.08409306
_cell_angle_alpha   89.99999911
_cell_angle_beta   89.29255592
_cell_angle_gamma   90.00000371
_symmetry_Int_Tables_number   1
_chemical_formula_structural   Sr3SO6
_chemical_formula_sum   'Sr6 S2 O12'
_cell_volume   264.11330411
_cell_formula_units_Z   2
loop_
 _symmetry_equiv_pos_site_id
 _symmetry_equiv_pos_as_xyz
  1  'x, y, z'
loop_
 _atom_site_type_symbol
 _atom_site_label
 _atom_site_symmetry_multiplicity
 _atom_site_fract_x
 _atom_site_fract_y
 _atom_site_fract_z
 _atom_site_occupancy
  Sr  Sr0  1  0.00000000  0.50000000  0.50000000  1.0
  Sr  Sr1  1  0.00535441  0.97838790  0.75148133  1.0
  Sr  Sr2  1  0.49464560  0.47838790  0.74851868  1.0
  Sr  Sr3  1  0.50000000  0.00000000  0.00000000  1.0
  Sr  Sr4  1  0.50535440  0.52161210  0.25148132  1.0
  Sr  Sr5  1  0.99464559  0.02161209  0.24851867  1.0
  S  S6  1  0.00000000  0.50000000  0.00000000  1.0
  S  S7  1  0.50000000  0.00000000  0.50000000  1.0
  O  O8  1  0.05347959  0.48761349  0.20711271  1.0
  O  O9  1  0.18134740  0.26601488  0.96819776  1.0
  O  O10  1  0.26969303  0.18564600  0.52662187  1.0
  O  O11  1  0.23030698  0.68564601  0.97337815  1.0
  O  O12  1  0.31865260  0.76601488  0.53180226  1.0
  O  O13  1  0.44652039  0.98761349  0.29288730  1.0
  O  O14  1  0.55347962  0.01238651  0.70711270  1.0
  O  O15  1  0.68134739  0.23398513  0.46819775  1.0
  O  O16  1  0.76969302  0.31435399  0.02662185  1.0
  O  O17  1  0.73030697  0.81435400  0.47337813  1.0
  O  O18  1  0.81865260  0.73398512  0.03180224  1.0
  O  O19  1  0.94652040  0.51238651  0.79288728  1.0
