# generated using pymatgen
data_SrCrO4
_symmetry_space_group_name_H-M   'P 1'
_cell_length_a   5.67831427
_cell_length_b   7.17099828
_cell_length_c   8.63411634
_cell_angle_alpha   90.00020824
_cell_angle_beta   90.00000728
_cell_angle_gamma   89.99999990
_symmetry_Int_Tables_number   1
_chemical_formula_structural   SrCrO4
_chemical_formula_sum   'Sr4 Cr4 O16'
_cell_volume   351.57415348
_cell_formula_units_Z   4
loop_
 _symmetry_equiv_pos_site_id
 _symmetry_equiv_pos_as_xyz
  1  'x, y, z'
loop_
 _atom_site_type_symbol
 _atom_site_label
 _atom_site_symmetry_multiplicity
 _atom_site_fract_x
 _atom_site_fract_y
 _atom_site_fract_z
 _atom_site_occupancy
  Sr  Sr0  1  0.24999998  0.34271376  0.67787681  1.0
  Sr  Sr1  1  0.75000000  0.65728504  0.32211840  1.0
  Sr  Sr2  1  0.75000000  0.84271369  0.82212006  1.0
  Sr  Sr3  1  0.25000000  0.15729105  0.17787440  1.0
  Cr  Cr4  1  0.25000002  0.68382686  0.05255437  1.0
  Cr  Cr5  1  0.75000000  0.31618049  0.94745131  1.0
  Cr  Cr6  1  0.74999998  0.18381681  0.44745158  1.0
  Cr  Cr7  1  0.25000000  0.81616911  0.55255835  1.0
  O  O8  1  0.50906459  0.18514890  0.92505466  1.0
  O  O9  1  0.00912106  0.81482123  0.07493906  1.0
  O  O10  1  0.49083860  0.68520010  0.57493615  1.0
  O  O11  1  0.99093364  0.31484943  0.42505489  1.0
  O  O12  1  0.49087896  0.81482121  0.07493917  1.0
  O  O13  1  0.99093539  0.18514886  0.92505478  1.0
  O  O14  1  0.50906633  0.31484940  0.42505479  1.0
  O  O15  1  0.00916141  0.68520009  0.57493604  1.0
  O  O16  1  0.25000002  0.90167578  0.37644104  1.0
  O  O17  1  0.74999998  0.09829131  0.62362055  1.0
  O  O18  1  0.74999999  0.40171017  0.12362322  1.0
  O  O19  1  0.25000004  0.59831078  0.87641371  1.0
  O  O20  1  0.24999997  0.98356641  0.68282121  1.0
  O  O21  1  0.75000002  0.01636986  0.31713236  1.0
  O  O22  1  0.75000005  0.48363284  0.81713075  1.0
  O  O23  1  0.24999998  0.51640679  0.18284234  1.0
