# generated using pymatgen
data_Ta2NiO6
_symmetry_space_group_name_H-M   'P 1'
_cell_length_a   5.07983190
_cell_length_b   5.76991605
_cell_length_c   14.21153226
_cell_angle_alpha   89.99999300
_cell_angle_beta   90.00000351
_cell_angle_gamma   89.99999556
_symmetry_Int_Tables_number   1
_chemical_formula_structural   Ta2NiO6
_chemical_formula_sum   'Ta8 Ni4 O24'
_cell_volume   416.54290417
_cell_formula_units_Z   4
loop_
 _symmetry_equiv_pos_site_id
 _symmetry_equiv_pos_as_xyz
  1  'x, y, z'
loop_
 _atom_site_type_symbol
 _atom_site_label
 _atom_site_symmetry_multiplicity
 _atom_site_fract_x
 _atom_site_fract_y
 _atom_site_fract_z
 _atom_site_occupancy
  Ta  Ta0  1  0.74559760  0.67563174  0.65956060  1.0
  Ta  Ta1  1  0.24559769  0.82436829  0.84043940  1.0
  Ta  Ta2  1  0.75440214  0.67563167  0.34043934  1.0
  Ta  Ta3  1  0.25440241  0.82436832  0.15956059  1.0
  Ta  Ta4  1  0.74559776  0.17563162  0.84043938  1.0
  Ta  Ta5  1  0.24559769  0.32436828  0.65956063  1.0
  Ta  Ta6  1  0.75440231  0.17563173  0.15956060  1.0
  Ta  Ta7  1  0.25440239  0.32436825  0.34043941  1.0
  Ni  Ni8  1  0.75000003  0.65145378  0.99999994  1.0
  Ni  Ni9  1  0.25000001  0.84854621  0.50000009  1.0
  Ni  Ni10  1  0.25000000  0.34854622  0.00000007  1.0
  Ni  Ni11  1  0.74999999  0.15145380  0.49999993  1.0
  O  O12  1  0.91926308  0.37394501  0.74417198  1.0
  O  O13  1  0.41926299  0.12605491  0.75582799  1.0
  O  O14  1  0.58073701  0.37394507  0.25582800  1.0
  O  O15  1  0.08073693  0.12605498  0.24417199  1.0
  O  O16  1  0.08073697  0.62605497  0.25582801  1.0
  O  O17  1  0.58073697  0.87394508  0.24417201  1.0
  O  O18  1  0.41926304  0.62605493  0.74417200  1.0
  O  O19  1  0.91926302  0.87394501  0.75582801  1.0
  O  O20  1  0.90985427  0.38250478  0.07872417  1.0
  O  O21  1  0.40985424  0.11749522  0.42127578  1.0
  O  O22  1  0.59014561  0.38250483  0.92127582  1.0
  O  O23  1  0.09014567  0.11749528  0.57872416  1.0
  O  O24  1  0.92484332  0.89338749  0.09581131  1.0
  O  O25  1  0.42484332  0.60661247  0.40418870  1.0
  O  O26  1  0.57515671  0.89338751  0.90418869  1.0
  O  O27  1  0.07515675  0.60661258  0.59581133  1.0
  O  O28  1  0.07515669  0.10661243  0.90418871  1.0
  O  O29  1  0.57515672  0.39338752  0.59581130  1.0
  O  O30  1  0.42484331  0.10661256  0.09581132  1.0
  O  O31  1  0.92484325  0.39338744  0.40418868  1.0
  O  O32  1  0.90985440  0.88250481  0.42127587  1.0
  O  O33  1  0.40985429  0.61749533  0.07872418  1.0
  O  O34  1  0.59014573  0.88250477  0.57872422  1.0
  O  O35  1  0.09014569  0.61749511  0.92127582  1.0
