# generated using pymatgen
data_TaPO5
_symmetry_space_group_name_H-M   'P 1'
_cell_length_a   6.49080356
_cell_length_b   7.72791878
_cell_length_c   7.49397268
_cell_angle_alpha   89.99997621
_cell_angle_beta   89.99999672
_cell_angle_gamma   89.99999130
_symmetry_Int_Tables_number   1
_chemical_formula_structural   TaPO5
_chemical_formula_sum   'Ta4 P4 O20'
_cell_volume   375.90068767
_cell_formula_units_Z   4
loop_
 _symmetry_equiv_pos_site_id
 _symmetry_equiv_pos_as_xyz
  1  'x, y, z'
loop_
 _atom_site_type_symbol
 _atom_site_label
 _atom_site_symmetry_multiplicity
 _atom_site_fract_x
 _atom_site_fract_y
 _atom_site_fract_z
 _atom_site_occupancy
  Ta  Ta0  1  0.24999998  0.74867478  0.12506626  1.0
  Ta  Ta1  1  0.75000000  0.24867479  0.37493369  1.0
  Ta  Ta2  1  0.25000001  0.75132530  0.62506644  1.0
  Ta  Ta3  1  0.75000002  0.25132513  0.87493381  1.0
  P  P4  1  0.74999993  0.61388388  0.12614348  1.0
  P  P5  1  0.24999991  0.11388336  0.37385668  1.0
  P  P6  1  0.75000007  0.88611598  0.62614326  1.0
  P  P7  1  0.25000007  0.38611676  0.87385647  1.0
  O  O8  1  0.24999994  0.49726975  0.04532271  1.0
  O  O9  1  0.75000000  0.18249756  0.11930319  1.0
  O  O10  1  0.55844473  0.73076885  0.12973091  1.0
  O  O11  1  0.94155529  0.73076890  0.12973102  1.0
  O  O12  1  0.25000002  0.99422604  0.20735422  1.0
  O  O13  1  0.74999995  0.49422611  0.29264581  1.0
  O  O14  1  0.05844458  0.23076883  0.37026884  1.0
  O  O15  1  0.44155548  0.23076884  0.37026894  1.0
  O  O16  1  0.25000001  0.68249765  0.38069669  1.0
  O  O17  1  0.75000005  0.99726974  0.45467712  1.0
  O  O18  1  0.24999995  0.00273031  0.54532256  1.0
  O  O19  1  0.75000000  0.31750239  0.61930333  1.0
  O  O20  1  0.55844476  0.76923122  0.62973107  1.0
  O  O21  1  0.94155519  0.76923122  0.62973116  1.0
  O  O22  1  0.25000004  0.50577387  0.70735442  1.0
  O  O23  1  0.74999998  0.00577401  0.79264603  1.0
  O  O24  1  0.05844446  0.26923105  0.87026899  1.0
  O  O25  1  0.44155552  0.26923110  0.87026909  1.0
  O  O26  1  0.25000000  0.81750238  0.88069684  1.0
  O  O27  1  0.75000006  0.50273022  0.95467699  1.0
