# generated using pymatgen
data_Tb2TeO6
_symmetry_space_group_name_H-M   'P 1'
_cell_length_a   9.16329637
_cell_length_b   9.16321330
_cell_length_c   5.26188382
_cell_angle_alpha   89.99983043
_cell_angle_beta   89.99999393
_cell_angle_gamma   119.99979297
_symmetry_Int_Tables_number   1
_chemical_formula_structural   Tb2TeO6
_chemical_formula_sum   'Tb6 Te3 O18'
_cell_volume   382.62410074
_cell_formula_units_Z   3
loop_
 _symmetry_equiv_pos_site_id
 _symmetry_equiv_pos_as_xyz
  1  'x, y, z'
loop_
 _atom_site_type_symbol
 _atom_site_label
 _atom_site_symmetry_multiplicity
 _atom_site_fract_x
 _atom_site_fract_y
 _atom_site_fract_z
 _atom_site_occupancy
  Tb  Tb0  1  0.99999858  0.61673133  0.99999816  1.0
  Tb  Tb1  1  0.00000216  0.27984372  0.50000212  1.0
  Tb  Tb2  1  0.38326818  0.38326919  0.99999917  1.0
  Tb  Tb3  1  0.27984473  0.00000379  0.50001099  1.0
  Tb  Tb4  1  0.72015424  0.72015982  0.49999372  1.0
  Tb  Tb5  1  0.61673021  0.00000158  0.99999803  1.0
  Te  Te6  1  0.33333333  0.66666667  0.49523895  1.0
  Te  Te7  1  0.00001194  0.99998398  0.00000722  1.0
  Te  Te8  1  0.66666667  0.33333333  0.50475263  1.0
  O  O9  1  0.07525206  0.87588838  0.78883676  1.0
  O  O10  1  0.22820029  0.76356824  0.28099579  1.0
  O  O11  1  0.13319886  0.54439465  0.70763093  1.0
  O  O12  1  0.41119159  0.86679575  0.70764390  1.0
  O  O13  1  0.23643263  0.46463642  0.28099110  1.0
  O  O14  1  0.12410686  0.19935622  0.78882459  1.0
  O  O15  1  0.19936447  0.12410539  0.21116550  1.0
  O  O16  1  0.53536112  0.77180560  0.28099438  1.0
  O  O17  1  0.45559735  0.58880672  0.70763453  1.0
  O  O18  1  0.80063419  0.92474139  0.78883758  1.0
  O  O19  1  0.46463964  0.23644329  0.71900013  1.0
  O  O20  1  0.58880886  0.45560819  0.29235634  1.0
  O  O21  1  0.54440122  0.13320909  0.29235690  1.0
  O  O22  1  0.77179675  0.53536622  0.71900035  1.0
  O  O23  1  0.92474848  0.80063541  0.21117594  1.0
  O  O24  1  0.76356439  0.22819942  0.71900257  1.0
  O  O25  1  0.86679791  0.41119217  0.29236100  1.0
  O  O26  1  0.87588939  0.07524591  0.21118967  1.0
