# generated using pymatgen
data_Tb3Si6N11
_symmetry_space_group_name_H-M   'P 1'
_cell_length_a   9.97553951
_cell_length_b   9.97553945
_cell_length_c   4.88715076
_cell_angle_alpha   90.00000029
_cell_angle_beta   90.00000023
_cell_angle_gamma   90.00000000
_symmetry_Int_Tables_number   1
_chemical_formula_structural   Tb3Si6N11
_chemical_formula_sum   'Tb6 Si12 N22'
_cell_volume   486.32715509
_cell_formula_units_Z   2
loop_
 _symmetry_equiv_pos_site_id
 _symmetry_equiv_pos_as_xyz
  1  'x, y, z'
loop_
 _atom_site_type_symbol
 _atom_site_label
 _atom_site_symmetry_multiplicity
 _atom_site_fract_x
 _atom_site_fract_y
 _atom_site_fract_z
 _atom_site_occupancy
  Tb  Tb0  1  0.49999977  0.50000008  0.33792163  1.0
  Tb  Tb1  1  0.00000015  0.99999981  0.33792165  1.0
  Tb  Tb2  1  0.68301981  0.18301984  0.34880450  1.0
  Tb  Tb3  1  0.18302019  0.31698006  0.34880459  1.0
  Tb  Tb4  1  0.81698012  0.68302011  0.34880456  1.0
  Tb  Tb5  1  0.31697973  0.81697978  0.34880456  1.0
  Si  Si6  1  0.11892841  0.61892840  0.40788268  1.0
  Si  Si7  1  0.61892691  0.88107304  0.40788305  1.0
  Si  Si8  1  0.38107263  0.11892732  0.40788295  1.0
  Si  Si9  1  0.88107413  0.38107412  0.40788331  1.0
  Si  Si10  1  0.57983977  0.70818716  0.89496732  1.0
  Si  Si11  1  0.42015949  0.29181289  0.89496723  1.0
  Si  Si12  1  0.29181257  0.57984034  0.89496695  1.0
  Si  Si13  1  0.70818685  0.42016007  0.89496756  1.0
  Si  Si14  1  0.79181298  0.92015959  0.89496732  1.0
  Si  Si15  1  0.92016018  0.20818687  0.89496757  1.0
  Si  Si16  1  0.07984045  0.79181259  0.89496695  1.0
  Si  Si17  1  0.20818725  0.07983986  0.89496722  1.0
  N  N18  1  0.50000043  0.99999968  0.43813396  1.0
  N  N19  1  0.99999768  0.49999770  0.43813397  1.0
  N  N20  1  0.42074136  0.68113457  0.01686475  1.0
  N  N21  1  0.57925946  0.31886560  0.01686485  1.0
  N  N22  1  0.31886566  0.42074059  0.01686492  1.0
  N  N23  1  0.68113466  0.57925872  0.01686469  1.0
  N  N24  1  0.81886554  0.07925932  0.01686481  1.0
  N  N25  1  0.07925860  0.18113468  0.01686469  1.0
  N  N26  1  0.92074049  0.81886569  0.01686493  1.0
  N  N27  1  0.18113452  0.92074122  0.01686479  1.0
  N  N28  1  0.84718231  0.34718234  0.05988737  1.0
  N  N29  1  0.34718238  0.15281775  0.05988737  1.0
  N  N30  1  0.65281774  0.84718238  0.05988737  1.0
  N  N31  1  0.15281769  0.65281771  0.05988736  1.0
  N  N32  1  0.22344819  0.07924529  0.54071210  1.0
  N  N33  1  0.07924520  0.77655183  0.54071208  1.0
  N  N34  1  0.92075473  0.22344823  0.54071207  1.0
  N  N35  1  0.77655179  0.92075483  0.54071206  1.0
  N  N36  1  0.72344823  0.42075476  0.54071207  1.0
  N  N37  1  0.27655183  0.57924520  0.54071208  1.0
  N  N38  1  0.42075483  0.27655181  0.54071207  1.0
  N  N39  1  0.57924530  0.72344819  0.54071208  1.0
