# generated using pymatgen
data_TbDyO3
_symmetry_space_group_name_H-M   'P 1'
_cell_length_a   6.45090167
_cell_length_b   6.45090164
_cell_length_c   12.78280976
_cell_angle_alpha   89.99999970
_cell_angle_beta   90.00000018
_cell_angle_gamma   120.00003355
_symmetry_Int_Tables_number   1
_chemical_formula_structural   TbDyO3
_chemical_formula_sum   'Tb6 Dy6 O18'
_cell_volume   460.67819079
_cell_formula_units_Z   6
loop_
 _symmetry_equiv_pos_site_id
 _symmetry_equiv_pos_as_xyz
  1  'x, y, z'
loop_
 _atom_site_type_symbol
 _atom_site_label
 _atom_site_symmetry_multiplicity
 _atom_site_fract_x
 _atom_site_fract_y
 _atom_site_fract_z
 _atom_site_occupancy
  Tb  Tb0  1  0.33333333  0.66666667  0.23659895  1.0
  Tb  Tb1  1  0.00000000  0.00000000  0.26992195  1.0
  Tb  Tb2  1  0.99999999  0.00000000  0.76992196  1.0
  Tb  Tb3  1  0.33333333  0.66666667  0.73659896  1.0
  Tb  Tb4  1  0.66666667  0.33333333  0.73659896  1.0
  Tb  Tb5  1  0.66666667  0.33333333  0.23659895  1.0
  Dy  Dy6  1  0.00000002  0.66691635  0.50139994  1.0
  Dy  Dy7  1  0.99999998  0.33308365  0.00139994  1.0
  Dy  Dy8  1  0.33308371  0.33308372  0.50139994  1.0
  Dy  Dy9  1  0.66691628  0.66691628  0.00139994  1.0
  Dy  Dy10  1  0.33308366  0.99999998  0.00139994  1.0
  Dy  Dy11  1  0.66691635  0.00000002  0.50139994  1.0
  O  O12  1  0.00000004  0.69445175  0.67530888  1.0
  O  O13  1  0.00000000  0.63593827  0.32922006  1.0
  O  O14  1  0.99999998  0.36406173  0.82922004  1.0
  O  O15  1  0.99999997  0.30554824  0.17530890  1.0
  O  O16  1  0.33333333  0.66666667  0.03001188  1.0
  O  O17  1  0.99999994  0.99999994  0.46668476  1.0
  O  O18  1  0.00000006  0.00000006  0.96668476  1.0
  O  O19  1  0.33333333  0.66666667  0.53001188  1.0
  O  O20  1  0.30554831  0.30554830  0.67530890  1.0
  O  O21  1  0.36406176  0.36406178  0.32922004  1.0
  O  O22  1  0.30554824  0.99999997  0.17530888  1.0
  O  O23  1  0.63593823  0.63593822  0.82922003  1.0
  O  O24  1  0.69445170  0.69445172  0.17530889  1.0
  O  O25  1  0.36406174  0.99999998  0.82922005  1.0
  O  O26  1  0.66666667  0.33333333  0.53001188  1.0
  O  O27  1  0.66666667  0.33333333  0.03001188  1.0
  O  O28  1  0.63593829  0.00000001  0.32922005  1.0
  O  O29  1  0.69445173  0.00000002  0.67530890  1.0
