# generated using pymatgen
data_TbSeClO3
_symmetry_space_group_name_H-M   'P 1'
_cell_length_a   7.04780398
_cell_length_b   7.42777649
_cell_length_c   8.86680087
_cell_angle_alpha   89.99999550
_cell_angle_beta   90.00000151
_cell_angle_gamma   89.99999383
_symmetry_Int_Tables_number   1
_chemical_formula_structural   TbSeClO3
_chemical_formula_sum   'Tb4 Se4 Cl4 O12'
_cell_volume   464.17270483
_cell_formula_units_Z   4
loop_
 _symmetry_equiv_pos_site_id
 _symmetry_equiv_pos_as_xyz
  1  'x, y, z'
loop_
 _atom_site_type_symbol
 _atom_site_label
 _atom_site_symmetry_multiplicity
 _atom_site_fract_x
 _atom_site_fract_y
 _atom_site_fract_z
 _atom_site_occupancy
  Tb  Tb0  1  0.24999998  0.10308428  0.54027133  1.0
  Tb  Tb1  1  0.75000000  0.39691567  0.04027124  1.0
  Tb  Tb2  1  0.75000003  0.89691570  0.45972870  1.0
  Tb  Tb3  1  0.24999999  0.60308432  0.95972876  1.0
  Se  Se4  1  0.75000009  0.28733133  0.63196486  1.0
  Se  Se5  1  0.74999996  0.78733130  0.86803510  1.0
  Se  Se6  1  0.25000003  0.21266885  0.13196481  1.0
  Se  Se7  1  0.24999994  0.71266869  0.36803514  1.0
  Cl  Cl8  1  0.75000003  0.56495883  0.31735439  1.0
  Cl  Cl9  1  0.24999997  0.93504123  0.81735451  1.0
  Cl  Cl10  1  0.74999997  0.06495875  0.18264551  1.0
  Cl  Cl11  1  0.24999999  0.43504110  0.68264566  1.0
  O  O12  1  0.92699217  0.63993315  0.93175343  1.0
  O  O13  1  0.92699212  0.13993323  0.56824656  1.0
  O  O14  1  0.75000006  0.75023191  0.67892128  1.0
  O  O15  1  0.57300781  0.13993323  0.56824644  1.0
  O  O16  1  0.74999994  0.25023191  0.82107856  1.0
  O  O17  1  0.42699210  0.36006685  0.06824673  1.0
  O  O18  1  0.07300790  0.36006679  0.06824661  1.0
  O  O19  1  0.07300789  0.86006679  0.43175342  1.0
  O  O20  1  0.42699219  0.86006680  0.43175354  1.0
  O  O21  1  0.24999995  0.24976808  0.32107871  1.0
  O  O22  1  0.25000006  0.74976810  0.17892142  1.0
  O  O23  1  0.57300782  0.63993310  0.93175329  1.0
