# generated using pymatgen
data_Ti3Bi2O9
_symmetry_space_group_name_H-M   'P 1'
_cell_length_a   7.26212852
_cell_length_b   7.26213960
_cell_length_c   10.45112090
_cell_angle_alpha   90.00000780
_cell_angle_beta   89.99999594
_cell_angle_gamma   120.00008524
_symmetry_Int_Tables_number   1
_chemical_formula_structural   Ti3Bi2O9
_chemical_formula_sum   'Ti6 Bi4 O18'
_cell_volume   477.33321324
_cell_formula_units_Z   2
loop_
 _symmetry_equiv_pos_site_id
 _symmetry_equiv_pos_as_xyz
  1  'x, y, z'
loop_
 _atom_site_type_symbol
 _atom_site_label
 _atom_site_symmetry_multiplicity
 _atom_site_fract_x
 _atom_site_fract_y
 _atom_site_fract_z
 _atom_site_occupancy
  Ti  Ti0  1  0.70644490  0.92837631  0.74999996  1.0
  Ti  Ti1  1  0.77807017  0.70644864  0.24999997  1.0
  Ti  Ti2  1  0.92838039  0.22193272  0.25000003  1.0
  Ti  Ti3  1  0.07161974  0.77806735  0.75000001  1.0
  Ti  Ti4  1  0.22192975  0.29355119  0.75000000  1.0
  Ti  Ti5  1  0.29355524  0.07162362  0.25000004  1.0
  Bi  Bi6  1  0.33333333  0.66666667  0.48213017  1.0
  Bi  Bi7  1  0.66666667  0.33333333  0.98213022  1.0
  Bi  Bi8  1  0.66666667  0.33333333  0.51786983  1.0
  Bi  Bi9  1  0.33333333  0.66666667  0.01786978  1.0
  O  O10  1  0.43692320  0.08555315  0.39510673  1.0
  O  O11  1  0.35136792  0.43691954  0.89510728  1.0
  O  O12  1  0.08554881  0.64862835  0.89510732  1.0
  O  O13  1  0.91445115  0.35137151  0.39510719  1.0
  O  O14  1  0.64863235  0.56308076  0.39510729  1.0
  O  O15  1  0.56307673  0.91444679  0.89510677  1.0
  O  O16  1  0.56307678  0.91444669  0.60489317  1.0
  O  O17  1  0.64863228  0.56308060  0.10489279  1.0
  O  O18  1  0.91445121  0.35137147  0.10489283  1.0
  O  O19  1  0.08554895  0.64862825  0.60489279  1.0
  O  O20  1  0.19979108  0.26539843  0.25000007  1.0
  O  O21  1  0.93439048  0.19978690  0.74999998  1.0
  O  O22  1  0.26539383  0.06560576  0.75000003  1.0
  O  O23  1  0.73460627  0.93439414  0.24999998  1.0
  O  O24  1  0.06560949  0.80021302  0.24999999  1.0
  O  O25  1  0.80020880  0.73460131  0.74999994  1.0
  O  O26  1  0.43692324  0.08555311  0.10489330  1.0
  O  O27  1  0.35136788  0.43691927  0.60489253  1.0
