# generated using pymatgen
data_TiAlO3
_symmetry_space_group_name_H-M   'P 1'
_cell_length_a   3.62510798
_cell_length_b   3.62507051
_cell_length_c   3.62508241
_cell_angle_alpha   89.99998578
_cell_angle_beta   90.00006069
_cell_angle_gamma   90.00010021
_symmetry_Int_Tables_number   1
_chemical_formula_structural   TiAlO3
_chemical_formula_sum   'Ti1 Al1 O3'
_cell_volume   47.63819409
_cell_formula_units_Z   1
loop_
 _symmetry_equiv_pos_site_id
 _symmetry_equiv_pos_as_xyz
  1  'x, y, z'
loop_
 _atom_site_type_symbol
 _atom_site_label
 _atom_site_symmetry_multiplicity
 _atom_site_fract_x
 _atom_site_fract_y
 _atom_site_fract_z
 _atom_site_occupancy
  Ti  Ti0  1  0.00000011  0.99999988  0.00000002  1.0
  Al  Al1  1  0.49999997  0.50000003  0.49999999  1.0
  O  O2  1  0.49999997  0.50000003  0.99999999  1.0
  O  O3  1  0.49999997  0.00000003  0.50000000  1.0
  O  O4  1  0.99999998  0.50000003  0.49999999  1.0
