# generated using pymatgen
data_TiClO
_symmetry_space_group_name_H-M   'P 1'
_cell_length_a   3.47184705
_cell_length_b   3.47184715
_cell_length_c   7.87911718
_cell_angle_alpha   89.99998520
_cell_angle_beta   90.00000203
_cell_angle_gamma   89.99999571
_symmetry_Int_Tables_number   1
_chemical_formula_structural   TiClO
_chemical_formula_sum   'Ti2 Cl2 O2'
_cell_volume   94.97269034
_cell_formula_units_Z   2
loop_
 _symmetry_equiv_pos_site_id
 _symmetry_equiv_pos_as_xyz
  1  'x, y, z'
loop_
 _atom_site_type_symbol
 _atom_site_label
 _atom_site_symmetry_multiplicity
 _atom_site_fract_x
 _atom_site_fract_y
 _atom_site_fract_z
 _atom_site_occupancy
  Ti  Ti0  1  0.74999998  0.75000006  0.86891635  1.0
  Ti  Ti1  1  0.25000002  0.24999997  0.13108222  1.0
  Cl  Cl2  1  0.25000003  0.24999991  0.68478595  1.0
  Cl  Cl3  1  0.74999998  0.75000004  0.31522233  1.0
  O  O4  1  0.74999999  0.25000007  0.99999658  1.0
  O  O5  1  0.25000001  0.74999995  0.99999657  1.0
