# generated using pymatgen
data_TiMo2O5
_symmetry_space_group_name_H-M   'P 1'
_cell_length_a   5.53371578
_cell_length_b   5.53371334
_cell_length_c   10.11908205
_cell_angle_alpha   90.00000008
_cell_angle_beta   89.99999984
_cell_angle_gamma   136.25459289
_symmetry_Int_Tables_number   1
_chemical_formula_structural   TiMo2O5
_chemical_formula_sum   'Ti2 Mo4 O10'
_cell_volume   214.25878559
_cell_formula_units_Z   2
loop_
 _symmetry_equiv_pos_site_id
 _symmetry_equiv_pos_as_xyz
  1  'x, y, z'
loop_
 _atom_site_type_symbol
 _atom_site_label
 _atom_site_symmetry_multiplicity
 _atom_site_fract_x
 _atom_site_fract_y
 _atom_site_fract_z
 _atom_site_occupancy
  Ti  Ti0  1  0.18309434  0.81690583  0.25000000  1.0
  Ti  Ti1  1  0.81690574  0.18309408  0.75000000  1.0
  Mo  Mo2  1  0.14530049  0.85469963  0.93549821  1.0
  Mo  Mo3  1  0.14530049  0.85469964  0.56450179  1.0
  Mo  Mo4  1  0.85469952  0.14530035  0.06450183  1.0
  Mo  Mo5  1  0.85469953  0.14530036  0.43549817  1.0
  O  O6  1  0.05352544  0.94647504  0.37553450  1.0
  O  O7  1  0.05352544  0.94647505  0.12446551  1.0
  O  O8  1  0.69055523  0.30944463  0.92391225  1.0
  O  O9  1  0.69055523  0.30944463  0.57608775  1.0
  O  O10  1  0.25802731  0.74197229  0.75000000  1.0
  O  O11  1  0.74197269  0.25802771  0.25000000  1.0
  O  O12  1  0.30944478  0.69055536  0.07608772  1.0
  O  O13  1  0.30944478  0.69055537  0.42391227  1.0
  O  O14  1  0.94647449  0.05352501  0.62446557  1.0
  O  O15  1  0.94647450  0.05352501  0.87553443  1.0
