# generated using pymatgen
data_TiOF
_symmetry_space_group_name_H-M   'P 1'
_cell_length_a   3.02613535
_cell_length_b   7.09248429
_cell_length_c   8.43137882
_cell_angle_alpha   89.99485995
_cell_angle_beta   89.99992202
_cell_angle_gamma   89.99999166
_symmetry_Int_Tables_number   1
_chemical_formula_structural   TiOF
_chemical_formula_sum   'Ti4 O4 F4'
_cell_volume   180.96114356
_cell_formula_units_Z   4
loop_
 _symmetry_equiv_pos_site_id
 _symmetry_equiv_pos_as_xyz
  1  'x, y, z'
loop_
 _atom_site_type_symbol
 _atom_site_label
 _atom_site_symmetry_multiplicity
 _atom_site_fract_x
 _atom_site_fract_y
 _atom_site_fract_z
 _atom_site_occupancy
  Ti  Ti0  1  0.74999966  0.15916087  0.03131746  1.0
  Ti  Ti1  1  0.24999985  0.34075079  0.53128547  1.0
  Ti  Ti2  1  0.75000025  0.65931480  0.46869368  1.0
  Ti  Ti3  1  0.25000024  0.84078727  0.96869670  1.0
  O  O4  1  0.75000065  0.97293331  0.86245606  1.0
  O  O5  1  0.25000074  0.52713360  0.36241014  1.0
  O  O6  1  0.74999938  0.47290706  0.63757247  1.0
  O  O7  1  0.24999925  0.02702441  0.13756299  1.0
  F  F8  1  0.75000013  0.16892250  0.46232094  1.0
  F  F9  1  0.24999987  0.33112219  0.96235801  1.0
  F  F10  1  0.75000003  0.66881672  0.03764441  1.0
  F  F11  1  0.24999995  0.83112649  0.53768166  1.0
