# generated using pymatgen
data_TiPb2OF6
_symmetry_space_group_name_H-M   'P 1'
_cell_length_a   7.33784328
_cell_length_b   7.33774443
_cell_length_c   7.19442451
_cell_angle_alpha   62.16401951
_cell_angle_beta   62.16329099
_cell_angle_gamma   78.65663500
_symmetry_Int_Tables_number   1
_chemical_formula_structural   TiPb2OF6
_chemical_formula_sum   'Ti2 Pb4 O2 F12'
_cell_volume   302.79561276
_cell_formula_units_Z   2
loop_
 _symmetry_equiv_pos_site_id
 _symmetry_equiv_pos_as_xyz
  1  'x, y, z'
loop_
 _atom_site_type_symbol
 _atom_site_label
 _atom_site_symmetry_multiplicity
 _atom_site_fract_x
 _atom_site_fract_y
 _atom_site_fract_z
 _atom_site_occupancy
  Ti  Ti0  1  0.68674345  0.66809037  0.08438018  1.0
  Ti  Ti1  1  0.66810451  0.68673860  0.58441421  1.0
  Pb  Pb2  1  0.16669396  0.39088594  0.21275461  1.0
  Pb  Pb3  1  0.21570604  0.80006774  0.48918867  1.0
  Pb  Pb4  1  0.80006626  0.21571332  0.98918683  1.0
  Pb  Pb5  1  0.39088583  0.16669446  0.71275359  1.0
  O  O6  1  0.58816055  0.72521425  0.36769270  1.0
  O  O7  1  0.72520867  0.58817277  0.86772814  1.0
  F  F8  1  0.18067909  0.07308325  0.11398816  1.0
  F  F9  1  0.58957901  0.38293024  0.74788140  1.0
  F  F10  1  0.61752530  0.94771457  0.93450680  1.0
  F  F11  1  0.39247048  0.75175241  0.76982897  1.0
  F  F12  1  0.95533650  0.75610075  0.96999533  1.0
  F  F13  1  0.44227950  0.16717597  0.26664706  1.0
  F  F14  1  0.16718078  0.44228154  0.76664541  1.0
  F  F15  1  0.94771865  0.61752594  0.43450233  1.0
  F  F16  1  0.75175125  0.39247086  0.26983145  1.0
  F  F17  1  0.38292956  0.58958064  0.24788549  1.0
  F  F18  1  0.07308307  0.18067576  0.61398944  1.0
  F  F19  1  0.75609751  0.95533064  0.46999924  1.0
