# generated using pymatgen
data_TiRh2O5
_symmetry_space_group_name_H-M   'P 1'
_cell_length_a   5.31792773
_cell_length_b   5.31792767
_cell_length_c   9.76259663
_cell_angle_alpha   89.99999939
_cell_angle_beta   90.00000038
_cell_angle_gamma   136.05680018
_symmetry_Int_Tables_number   1
_chemical_formula_structural   TiRh2O5
_chemical_formula_sum   'Ti2 Rh4 O10'
_cell_volume   191.59104152
_cell_formula_units_Z   2
loop_
 _symmetry_equiv_pos_site_id
 _symmetry_equiv_pos_as_xyz
  1  'x, y, z'
loop_
 _atom_site_type_symbol
 _atom_site_label
 _atom_site_symmetry_multiplicity
 _atom_site_fract_x
 _atom_site_fract_y
 _atom_site_fract_z
 _atom_site_occupancy
  Ti  Ti0  1  0.19033119  0.80966877  0.25000001  1.0
  Ti  Ti1  1  0.80966944  0.19033059  0.75000001  1.0
  Rh  Rh2  1  0.14305112  0.85694889  0.94066525  1.0
  Rh  Rh3  1  0.14305112  0.85694889  0.55933475  1.0
  Rh  Rh4  1  0.85694878  0.14305121  0.05933510  1.0
  Rh  Rh5  1  0.85694879  0.14305121  0.44066489  1.0
  O  O6  1  0.05135592  0.94864410  0.37578428  1.0
  O  O7  1  0.05135592  0.94864408  0.12421570  1.0
  O  O8  1  0.68643086  0.31356915  0.93406909  1.0
  O  O9  1  0.68643088  0.31356912  0.56593092  1.0
  O  O10  1  0.24652800  0.75347202  0.75000001  1.0
  O  O11  1  0.75347170  0.24652828  0.25000000  1.0
  O  O12  1  0.31356906  0.68643093  0.06593114  1.0
  O  O13  1  0.31356908  0.68643093  0.43406887  1.0
  O  O14  1  0.94864406  0.05135591  0.62421541  1.0
  O  O15  1  0.94864410  0.05135591  0.87578457  1.0
