# generated using pymatgen
data_TiSBr
_symmetry_space_group_name_H-M   'P 1'
_cell_length_a   4.81685573
_cell_length_b   3.51642024
_cell_length_c   8.60578999
_cell_angle_alpha   89.99996622
_cell_angle_beta   90.00009904
_cell_angle_gamma   89.99999479
_symmetry_Int_Tables_number   1
_chemical_formula_structural   TiSBr
_chemical_formula_sum   'Ti2 S2 Br2'
_cell_volume   145.76563661
_cell_formula_units_Z   2
loop_
 _symmetry_equiv_pos_site_id
 _symmetry_equiv_pos_as_xyz
  1  'x, y, z'
loop_
 _atom_site_type_symbol
 _atom_site_label
 _atom_site_symmetry_multiplicity
 _atom_site_fract_x
 _atom_site_fract_y
 _atom_site_fract_z
 _atom_site_occupancy
  Ti  Ti0  1  0.74999969  0.75000009  0.59135731  1.0
  Ti  Ti1  1  0.25000030  0.24999980  0.40864376  1.0
  S  S2  1  0.75000060  0.25000001  0.39305196  1.0
  S  S3  1  0.24999938  0.74999989  0.60694231  1.0
  Br  Br4  1  0.24999976  0.75000008  0.18361289  1.0
  Br  Br5  1  0.75000028  0.25000013  0.81639176  1.0
