# generated using pymatgen
data_TiV2O5
_symmetry_space_group_name_H-M   'P 1'
_cell_length_a   5.37947417
_cell_length_b   5.37946989
_cell_length_c   9.97220181
_cell_angle_alpha   89.99999903
_cell_angle_beta   90.00000049
_cell_angle_gamma   138.56435808
_symmetry_Int_Tables_number   1
_chemical_formula_structural   TiV2O5
_chemical_formula_sum   'Ti2 V4 O10'
_cell_volume   190.97781793
_cell_formula_units_Z   2
loop_
 _symmetry_equiv_pos_site_id
 _symmetry_equiv_pos_as_xyz
  1  'x, y, z'
loop_
 _atom_site_type_symbol
 _atom_site_label
 _atom_site_symmetry_multiplicity
 _atom_site_fract_x
 _atom_site_fract_y
 _atom_site_fract_z
 _atom_site_occupancy
  Ti  Ti0  1  0.18491931  0.81508219  0.25000000  1.0
  Ti  Ti1  1  0.81508053  0.18491766  0.75000000  1.0
  V  V2  1  0.13988615  0.86011453  0.94090647  1.0
  V  V3  1  0.13988628  0.86011468  0.55909354  1.0
  V  V4  1  0.86011373  0.13988534  0.05909354  1.0
  V  V5  1  0.86011382  0.13988544  0.44090645  1.0
  O  O6  1  0.04944590  0.95055639  0.37919818  1.0
  O  O7  1  0.04944546  0.95055596  0.12080182  1.0
  O  O8  1  0.69502259  0.30497745  0.92517181  1.0
  O  O9  1  0.69502264  0.30497752  0.57482819  1.0
  O  O10  1  0.24871318  0.75128648  0.75000000  1.0
  O  O11  1  0.75128676  0.24871344  0.25000000  1.0
  O  O12  1  0.30497738  0.69502249  0.07482819  1.0
  O  O13  1  0.30497744  0.69502257  0.42517182  1.0
  O  O14  1  0.95055435  0.04944387  0.62080181  1.0
  O  O15  1  0.95055449  0.04944400  0.87919819  1.0
