# generated using pymatgen
data_TiVO4
_symmetry_space_group_name_H-M   'P 1'
_cell_length_a   5.16915452
_cell_length_b   5.16916083
_cell_length_c   6.19099121
_cell_angle_alpha   90.00071873
_cell_angle_beta   89.99928152
_cell_angle_gamma   113.16776173
_symmetry_Int_Tables_number   1
_chemical_formula_structural   TiVO4
_chemical_formula_sum   'Ti2 V2 O8'
_cell_volume   152.08411794
_cell_formula_units_Z   2
loop_
 _symmetry_equiv_pos_site_id
 _symmetry_equiv_pos_as_xyz
  1  'x, y, z'
loop_
 _atom_site_type_symbol
 _atom_site_label
 _atom_site_symmetry_multiplicity
 _atom_site_fract_x
 _atom_site_fract_y
 _atom_site_fract_z
 _atom_site_occupancy
  Ti  Ti0  1  0.99999895  0.99999669  0.49999932  1.0
  Ti  Ti1  1  0.00000087  0.00000348  0.99999985  1.0
  V  V2  1  0.64813855  0.35186647  0.24999262  1.0
  V  V3  1  0.35186087  0.64813417  0.75000971  1.0
  O  O4  1  0.21879258  0.78108907  0.53310163  1.0
  O  O5  1  0.78120415  0.21891424  0.03310606  1.0
  O  O6  1  0.78108888  0.21879294  0.46689837  1.0
  O  O7  1  0.21891498  0.78120314  0.96689353  1.0
  O  O8  1  0.74663029  0.78902340  0.75002915  1.0
  O  O9  1  0.25336966  0.21097637  0.25003211  1.0
  O  O10  1  0.78902393  0.74663176  0.24997031  1.0
  O  O11  1  0.21097628  0.25336827  0.74996735  1.0
