# generated using pymatgen
data_TiVO4
_symmetry_space_group_name_H-M   'P 1'
_cell_length_a   5.63613010
_cell_length_b   5.63617177
_cell_length_c   5.63623880
_cell_angle_alpha   110.69813900
_cell_angle_beta   110.68864597
_cell_angle_gamma   107.05127920
_symmetry_Int_Tables_number   1
_chemical_formula_structural   TiVO4
_chemical_formula_sum   'Ti2 V2 O8'
_cell_volume   137.64718352
_cell_formula_units_Z   2
loop_
 _symmetry_equiv_pos_site_id
 _symmetry_equiv_pos_as_xyz
  1  'x, y, z'
loop_
 _atom_site_type_symbol
 _atom_site_label
 _atom_site_symmetry_multiplicity
 _atom_site_fract_x
 _atom_site_fract_y
 _atom_site_fract_z
 _atom_site_occupancy
  Ti  Ti0  1  0.12499044  0.87501479  0.25000926  1.0
  Ti  Ti1  1  0.87501151  0.12498977  0.75000035  1.0
  V  V2  1  0.37494112  0.62494959  0.74999835  1.0
  V  V3  1  0.62505351  0.37504333  0.24999492  1.0
  O  O4  1  0.80247580  0.76464181  0.46224313  1.0
  O  O5  1  0.34019883  0.80239676  0.53770762  1.0
  O  O6  1  0.76469412  0.80250109  0.96227065  1.0
  O  O7  1  0.80236870  0.34018883  0.03773332  1.0
  O  O8  1  0.65980108  0.19759893  0.46228848  1.0
  O  O9  1  0.19752572  0.23536374  0.53775319  1.0
  O  O10  1  0.23531083  0.19750349  0.03772992  1.0
  O  O11  1  0.19763035  0.65981087  0.96226981  1.0
