# generated using pymatgen
data_TlInTe3O8
_symmetry_space_group_name_H-M   'P 1'
_cell_length_a   5.86710478
_cell_length_b   7.71701826
_cell_length_c   11.28665421
_cell_angle_alpha   100.89994318
_cell_angle_beta   89.61858833
_cell_angle_gamma   107.87068525
_symmetry_Int_Tables_number   1
_chemical_formula_structural   TlInTe3O8
_chemical_formula_sum   'Tl2 In2 Te6 O16'
_cell_volume   476.86827207
_cell_formula_units_Z   2
loop_
 _symmetry_equiv_pos_site_id
 _symmetry_equiv_pos_as_xyz
  1  'x, y, z'
loop_
 _atom_site_type_symbol
 _atom_site_label
 _atom_site_symmetry_multiplicity
 _atom_site_fract_x
 _atom_site_fract_y
 _atom_site_fract_z
 _atom_site_occupancy
  Tl  Tl0  1  0.83906265  0.12168373  0.17101280  1.0
  Tl  Tl1  1  0.16093808  0.87831652  0.82898726  1.0
  In  In2  1  0.49999991  0.50000001  0.99999999  1.0
  In  In3  1  0.00000001  0.50000001  0.50000000  1.0
  Te  Te4  1  0.21891064  0.98633907  0.41588891  1.0
  Te  Te5  1  0.78108944  0.01366087  0.58411106  1.0
  Te  Te6  1  0.05859472  0.66855619  0.14741599  1.0
  Te  Te7  1  0.94140510  0.33144383  0.85258404  1.0
  Te  Te8  1  0.51403488  0.52805791  0.33709197  1.0
  Te  Te9  1  0.48596515  0.47194208  0.66290802  1.0
  O  O10  1  0.18816060  0.73426579  0.41697964  1.0
  O  O11  1  0.81183944  0.26573419  0.58302032  1.0
  O  O12  1  0.23234859  0.92257320  0.22758888  1.0
  O  O13  1  0.76765129  0.07742670  0.77241110  1.0
  O  O14  1  0.88635090  0.96828995  0.39588112  1.0
  O  O15  1  0.11364923  0.03171008  0.60411891  1.0
  O  O16  1  0.24846059  0.66657647  0.01005712  1.0
  O  O17  1  0.75153904  0.33342338  0.98994282  1.0
  O  O18  1  0.80649754  0.73480176  0.08251327  1.0
  O  O19  1  0.19350223  0.26519824  0.91748678  1.0
  O  O20  1  0.38030687  0.43320821  0.17620981  1.0
  O  O21  1  0.61969303  0.56679174  0.82379020  1.0
  O  O22  1  0.25756175  0.36992761  0.41122217  1.0
  O  O23  1  0.74243831  0.63007241  0.58877782  1.0
  O  O24  1  0.73644581  0.39265717  0.34113646  1.0
  O  O25  1  0.26355421  0.60734287  0.65886353  1.0
