# generated using pymatgen
data_TlNO3
_symmetry_space_group_name_H-M   'P 1'
_cell_length_a   9.33844025
_cell_length_b   5.99080523
_cell_length_c   5.99079294
_cell_angle_alpha   60.00222527
_cell_angle_beta   50.09724117
_cell_angle_gamma   50.09720116
_symmetry_Int_Tables_number   1
_chemical_formula_structural   TlNO3
_chemical_formula_sum   'Tl2 N2 O6'
_cell_volume   194.99504152
_cell_formula_units_Z   2
loop_
 _symmetry_equiv_pos_site_id
 _symmetry_equiv_pos_as_xyz
  1  'x, y, z'
loop_
 _atom_site_type_symbol
 _atom_site_label
 _atom_site_symmetry_multiplicity
 _atom_site_fract_x
 _atom_site_fract_y
 _atom_site_fract_z
 _atom_site_occupancy
  Tl  Tl0  1  0.25000000  0.49999999  0.50000001  1.0
  Tl  Tl1  1  0.74999998  0.50000001  0.50000001  1.0
  N  N2  1  0.99999983  0.99996637  0.00003223  1.0
  N  N3  1  0.49999986  0.00003391  0.99996829  1.0
  O  O4  1  0.99998550  0.21213651  0.99999423  1.0
  O  O5  1  0.00001460  0.00000585  0.78786480  1.0
  O  O6  1  0.49998552  0.99999407  0.21213523  1.0
  O  O7  1  0.50001460  0.78786300  0.00000567  1.0
  O  O8  1  0.50000003  0.21210307  0.78789671  1.0
  O  O9  1  0.00000007  0.78789721  0.21210282  1.0
