# generated using pymatgen
data_TlNO3
_symmetry_space_group_name_H-M   'P 1'
_cell_length_a   5.59409220
_cell_length_b   4.87144957
_cell_length_c   7.26369747
_cell_angle_alpha   76.09921595
_cell_angle_beta   90.00001273
_cell_angle_gamma   90.00000887
_symmetry_Int_Tables_number   1
_chemical_formula_structural   TlNO3
_chemical_formula_sum   'Tl2 N2 O6'
_cell_volume   192.14828449
_cell_formula_units_Z   2
loop_
 _symmetry_equiv_pos_site_id
 _symmetry_equiv_pos_as_xyz
  1  'x, y, z'
loop_
 _atom_site_type_symbol
 _atom_site_label
 _atom_site_symmetry_multiplicity
 _atom_site_fract_x
 _atom_site_fract_y
 _atom_site_fract_z
 _atom_site_occupancy
  Tl  Tl0  1  0.24999999  0.20632239  0.23590612  1.0
  Tl  Tl1  1  0.75000001  0.79367761  0.76409388  1.0
  N  N2  1  0.25000004  0.18087174  0.77140858  1.0
  N  N3  1  0.74999996  0.81912826  0.22859143  1.0
  O  O4  1  0.94684620  0.74165398  0.16981413  1.0
  O  O5  1  0.55315374  0.74165409  0.16981387  1.0
  O  O6  1  0.74999991  0.98018334  0.34335752  1.0
  O  O7  1  0.25000011  0.01981666  0.65664248  1.0
  O  O8  1  0.05315378  0.25834602  0.83018584  1.0
  O  O9  1  0.44684626  0.25834589  0.83018616  1.0
