# generated using pymatgen
data_TlSiBiO4
_symmetry_space_group_name_H-M   'P 1'
_cell_length_a   5.32661747
_cell_length_b   7.38094255
_cell_length_c   13.07983531
_cell_angle_alpha   90.00097329
_cell_angle_beta   89.99999479
_cell_angle_gamma   89.99999955
_symmetry_Int_Tables_number   1
_chemical_formula_structural   TlSiBiO4
_chemical_formula_sum   'Tl4 Si4 Bi4 O16'
_cell_volume   514.23970958
_cell_formula_units_Z   4
loop_
 _symmetry_equiv_pos_site_id
 _symmetry_equiv_pos_as_xyz
  1  'x, y, z'
loop_
 _atom_site_type_symbol
 _atom_site_label
 _atom_site_symmetry_multiplicity
 _atom_site_fract_x
 _atom_site_fract_y
 _atom_site_fract_z
 _atom_site_occupancy
  Tl  Tl0  1  0.23161124  0.96040029  0.15975450  1.0
  Tl  Tl1  1  0.73161137  0.46040058  0.34024527  1.0
  Tl  Tl2  1  0.23161127  0.53959945  0.65975473  1.0
  Tl  Tl3  1  0.73161134  0.03959965  0.84024550  1.0
  Si  Si4  1  0.74886843  0.74112232  0.05270694  1.0
  Si  Si5  1  0.24886594  0.24110416  0.44729159  1.0
  Si  Si6  1  0.74886595  0.75889584  0.55270843  1.0
  Si  Si7  1  0.24886844  0.25887768  0.94729307  1.0
  Bi  Bi8  1  0.72766251  0.27765907  0.11134124  1.0
  Bi  Bi9  1  0.22766246  0.77766186  0.38865831  1.0
  Bi  Bi10  1  0.72766231  0.22233815  0.61134167  1.0
  Bi  Bi11  1  0.22766263  0.72234093  0.88865873  1.0
  O  O12  1  0.11482537  0.27102059  0.06280932  1.0
  O  O13  1  0.05864940  0.72232863  0.03425599  1.0
  O  O14  1  0.66214469  0.57269698  0.12499813  1.0
  O  O15  1  0.69859638  0.93936800  0.10408116  1.0
  O  O16  1  0.19859418  0.43937575  0.39591673  1.0
  O  O17  1  0.16214926  0.07270514  0.37500517  1.0
  O  O18  1  0.55864916  0.22232976  0.46574368  1.0
  O  O19  1  0.61482559  0.77101971  0.43719076  1.0
  O  O20  1  0.11482561  0.22898030  0.56280927  1.0
  O  O21  1  0.05864916  0.77767031  0.53425632  1.0
  O  O22  1  0.66214921  0.92729486  0.62499485  1.0
  O  O23  1  0.69859431  0.56062421  0.60408327  1.0
  O  O24  1  0.19859632  0.06063204  0.89591881  1.0
  O  O25  1  0.16214471  0.42730304  0.87500188  1.0
  O  O26  1  0.55864940  0.27767133  0.96574399  1.0
  O  O27  1  0.61482535  0.72897938  0.93719070  1.0
