# generated using pymatgen
data_V3Si6N11
_symmetry_space_group_name_H-M   'P 1'
_cell_length_a   9.72997424
_cell_length_b   9.72996930
_cell_length_c   4.80741327
_cell_angle_alpha   90.00432091
_cell_angle_beta   90.00361408
_cell_angle_gamma   89.99992420
_symmetry_Int_Tables_number   1
_chemical_formula_structural   V3Si6N11
_chemical_formula_sum   'V6 Si12 N22'
_cell_volume   455.12911259
_cell_formula_units_Z   2
loop_
 _symmetry_equiv_pos_site_id
 _symmetry_equiv_pos_as_xyz
  1  'x, y, z'
loop_
 _atom_site_type_symbol
 _atom_site_label
 _atom_site_symmetry_multiplicity
 _atom_site_fract_x
 _atom_site_fract_y
 _atom_site_fract_z
 _atom_site_occupancy
  V  V0  1  0.50004785  0.50004730  0.94230088  1.0
  V  V1  1  0.00003315  0.00004673  0.94229496  1.0
  V  V2  1  0.79765767  0.29765825  0.93000881  1.0
  V  V3  1  0.29767287  0.20237494  0.92999963  1.0
  V  V4  1  0.70236478  0.79768048  0.92999684  1.0
  V  V5  1  0.20235251  0.70235481  0.92998708  1.0
  Si  Si6  1  0.38074875  0.88074267  0.05219002  1.0
  Si  Si7  1  0.88072678  0.61924612  0.05218375  1.0
  Si  Si8  1  0.11924193  0.38073076  0.05218850  1.0
  Si  Si9  1  0.61926707  0.11926176  0.05218529  1.0
  Si  Si10  1  0.70274361  0.58355106  0.53044854  1.0
  Si  Si11  1  0.29724813  0.41644189  0.53047200  1.0
  Si  Si12  1  0.41644282  0.70274350  0.53045541  1.0
  Si  Si13  1  0.58355331  0.29724752  0.53046234  1.0
  Si  Si14  1  0.91644160  0.79724861  0.53047158  1.0
  Si  Si15  1  0.79724858  0.08355456  0.53046025  1.0
  Si  Si16  1  0.20274521  0.91644405  0.53046116  1.0
  Si  Si17  1  0.08355118  0.20274385  0.53045269  1.0
  N  N18  1  0.50001679  0.99998287  0.09529305  1.0
  N  N19  1  0.99996950  0.49997266  0.09529505  1.0
  N  N20  1  0.34140851  0.84140792  0.70184888  1.0
  N  N21  1  0.84140646  0.65859187  0.70184935  1.0
  N  N22  1  0.15859081  0.34140799  0.70185393  1.0
  N  N23  1  0.65859152  0.15859170  0.70185462  1.0
  N  N24  1  0.71099196  0.59359878  0.17602870  1.0
  N  N25  1  0.28896423  0.40637008  0.17605894  1.0
  N  N26  1  0.40638439  0.71100602  0.17603436  1.0
  N  N27  1  0.59360921  0.28897895  0.17605430  1.0
  N  N28  1  0.90637001  0.78896661  0.17605826  1.0
  N  N29  1  0.78898757  0.09361241  0.17605031  1.0
  N  N30  1  0.21101620  0.90638398  0.17604118  1.0
  N  N31  1  0.09359913  0.21099514  0.17603258  1.0
  N  N32  1  0.57342491  0.67911966  0.68421723  1.0
  N  N33  1  0.42657701  0.32087899  0.68421016  1.0
  N  N34  1  0.32087542  0.57342792  0.68420543  1.0
  N  N35  1  0.67912142  0.42658219  0.68422092  1.0
  N  N36  1  0.17911965  0.07342658  0.68422182  1.0
  N  N37  1  0.07342650  0.82087790  0.68420596  1.0
  N  N38  1  0.92658191  0.17912172  0.68422240  1.0
  N  N39  1  0.82087908  0.92657921  0.68420874  1.0
