# generated using pymatgen
data_VAgO3
_symmetry_space_group_name_H-M   'P 1'
_cell_length_a   5.46586487
_cell_length_b   6.05704971
_cell_length_c   8.53552636
_cell_angle_alpha   89.99999974
_cell_angle_beta   89.99288044
_cell_angle_gamma   89.99999971
_symmetry_Int_Tables_number   1
_chemical_formula_structural   VAgO3
_chemical_formula_sum   'V4 Ag4 O12'
_cell_volume   282.58579898
_cell_formula_units_Z   4
loop_
 _symmetry_equiv_pos_site_id
 _symmetry_equiv_pos_as_xyz
  1  'x, y, z'
loop_
 _atom_site_type_symbol
 _atom_site_label
 _atom_site_symmetry_multiplicity
 _atom_site_fract_x
 _atom_site_fract_y
 _atom_site_fract_z
 _atom_site_occupancy
  V  V0  1  0.48672944  0.75000000  0.65839300  1.0
  V  V1  1  0.48669517  0.25000000  0.84161049  1.0
  V  V2  1  0.51337220  0.25000000  0.34152784  1.0
  V  V3  1  0.51341705  0.75000000  0.15847604  1.0
  Ag  Ag4  1  0.02381401  0.75000000  0.89011597  1.0
  Ag  Ag5  1  0.02376738  0.25000000  0.60989901  1.0
  Ag  Ag6  1  0.97618775  0.25000000  0.10987728  1.0
  Ag  Ag7  1  0.97623472  0.75000000  0.39011029  1.0
  O  O8  1  0.64242981  0.49999689  0.24998323  1.0
  O  O9  1  0.35738922  0.99999593  0.75001519  1.0
  O  O10  1  0.35738922  0.50000408  0.75001519  1.0
  O  O11  1  0.64242982  0.00000311  0.24998323  1.0
  O  O12  1  0.37084047  0.75000000  0.47702325  1.0
  O  O13  1  0.37080437  0.25000000  0.02299654  1.0
  O  O14  1  0.62906104  0.25000000  0.52292713  1.0
  O  O15  1  0.62909236  0.75000000  0.97704562  1.0
  O  O16  1  0.20214262  0.75000000  0.14255142  1.0
  O  O17  1  0.20214394  0.25000000  0.35748325  1.0
  O  O18  1  0.79802053  0.25000000  0.85743101  1.0
  O  O19  1  0.79803889  0.75000000  0.64253501  1.0
