# generated using pymatgen
data_VAgO3
_symmetry_space_group_name_H-M   'P 1'
_cell_length_a   3.66239198
_cell_length_b   5.47768305
_cell_length_c   14.85751146
_cell_angle_alpha   89.99965161
_cell_angle_beta   90.00000000
_cell_angle_gamma   90.00000010
_symmetry_Int_Tables_number   1
_chemical_formula_structural   VAgO3
_chemical_formula_sum   'V4 Ag4 O12'
_cell_volume   298.06281427
_cell_formula_units_Z   4
loop_
 _symmetry_equiv_pos_site_id
 _symmetry_equiv_pos_as_xyz
  1  'x, y, z'
loop_
 _atom_site_type_symbol
 _atom_site_label
 _atom_site_symmetry_multiplicity
 _atom_site_fract_x
 _atom_site_fract_y
 _atom_site_fract_z
 _atom_site_occupancy
  V  V0  1  0.75000000  0.06872694  0.91689236  1.0
  V  V1  1  0.25000000  0.93124869  0.08310985  1.0
  V  V2  1  0.25000000  0.56873821  0.58310892  1.0
  V  V3  1  0.75000000  0.43127626  0.41689214  1.0
  Ag  Ag4  1  0.25000000  0.91460700  0.32431711  1.0
  Ag  Ag5  1  0.75000000  0.08539664  0.67568291  1.0
  Ag  Ag6  1  0.75000000  0.41459941  0.17568354  1.0
  Ag  Ag7  1  0.25000000  0.58539832  0.82431628  1.0
  O  O8  1  0.25000000  0.38661456  0.67721598  1.0
  O  O9  1  0.75000000  0.13590112  0.38432433  1.0
  O  O10  1  0.25000000  0.46976852  0.45147186  1.0
  O  O11  1  0.75000000  0.53023706  0.54852784  1.0
  O  O12  1  0.75000000  0.36411350  0.88432163  1.0
  O  O13  1  0.75000000  0.96975863  0.04852804  1.0
  O  O14  1  0.75000000  0.61338879  0.32278268  1.0
  O  O15  1  0.75000000  0.88661926  0.82278543  1.0
  O  O16  1  0.25000000  0.86409125  0.61567482  1.0
  O  O17  1  0.25000000  0.63590028  0.11567757  1.0
  O  O18  1  0.25000000  0.11338020  0.17721441  1.0
  O  O19  1  0.25000000  0.03023536  0.95147231  1.0
