# generated using pymatgen
data_VBO4
_symmetry_space_group_name_H-M   'P 1'
_cell_length_a   4.81398659
_cell_length_b   4.81398951
_cell_length_c   7.58201979
_cell_angle_alpha   89.99999810
_cell_angle_beta   90.00000269
_cell_angle_gamma   98.11531630
_symmetry_Int_Tables_number   1
_chemical_formula_structural   VBO4
_chemical_formula_sum   'V2 B2 O8'
_cell_volume   173.94981187
_cell_formula_units_Z   2
loop_
 _symmetry_equiv_pos_site_id
 _symmetry_equiv_pos_as_xyz
  1  'x, y, z'
loop_
 _atom_site_type_symbol
 _atom_site_label
 _atom_site_symmetry_multiplicity
 _atom_site_fract_x
 _atom_site_fract_y
 _atom_site_fract_z
 _atom_site_occupancy
  V  V0  1  0.68466951  0.31533076  0.24999868  1.0
  V  V1  1  0.31534853  0.68465156  0.74999884  1.0
  B  B2  1  0.99996162  0.00001397  0.50003480  1.0
  B  B3  1  0.00001825  0.00000522  0.00002364  1.0
  O  O4  1  0.16897696  0.83101542  0.54260891  1.0
  O  O5  1  0.83101964  0.16898800  0.04259706  1.0
  O  O6  1  0.83099031  0.16900151  0.45741795  1.0
  O  O7  1  0.16900609  0.83100141  0.95740635  1.0
  O  O8  1  0.65840400  0.76185286  0.74997157  1.0
  O  O9  1  0.34160420  0.23814708  0.24997110  1.0
  O  O10  1  0.76185367  0.65839591  0.24998556  1.0
  O  O11  1  0.23814722  0.34159630  0.74998555  1.0
