# generated using pymatgen
data_VClO
_symmetry_space_group_name_H-M   'P 1'
_cell_length_a   3.44736522
_cell_length_b   3.44735262
_cell_length_c   7.91902615
_cell_angle_alpha   90.00015347
_cell_angle_beta   90.00001025
_cell_angle_gamma   89.99999983
_symmetry_Int_Tables_number   1
_chemical_formula_structural   VClO
_chemical_formula_sum   'V2 Cl2 O2'
_cell_volume   94.11195199
_cell_formula_units_Z   2
loop_
 _symmetry_equiv_pos_site_id
 _symmetry_equiv_pos_as_xyz
  1  'x, y, z'
loop_
 _atom_site_type_symbol
 _atom_site_label
 _atom_site_symmetry_multiplicity
 _atom_site_fract_x
 _atom_site_fract_y
 _atom_site_fract_z
 _atom_site_occupancy
  V  V0  1  0.74999896  0.74999740  0.86621721  1.0
  V  V1  1  0.25000252  0.24999946  0.13378376  1.0
  Cl  Cl2  1  0.24999973  0.25000309  0.67924088  1.0
  Cl  Cl3  1  0.74999819  0.75000135  0.32075915  1.0
  O  O4  1  0.74999933  0.24999903  0.00000076  1.0
  O  O5  1  0.25000127  0.74999967  0.99999823  1.0
