# generated using pymatgen
data_VFeO4
_symmetry_space_group_name_H-M   'P 1'
_cell_length_a   5.63837209
_cell_length_b   5.63837876
_cell_length_c   5.63840034
_cell_angle_alpha   108.81001687
_cell_angle_beta   108.81010754
_cell_angle_gamma   110.80214725
_symmetry_Int_Tables_number   1
_chemical_formula_structural   VFeO4
_chemical_formula_sum   'V2 Fe2 O8'
_cell_volume   137.93162684
_cell_formula_units_Z   2
loop_
 _symmetry_equiv_pos_site_id
 _symmetry_equiv_pos_as_xyz
  1  'x, y, z'
loop_
 _atom_site_type_symbol
 _atom_site_label
 _atom_site_symmetry_multiplicity
 _atom_site_fract_x
 _atom_site_fract_y
 _atom_site_fract_z
 _atom_site_occupancy
  V  V0  1  0.37499996  0.62500090  0.74999966  1.0
  V  V1  1  0.62499995  0.37499909  0.24999992  1.0
  Fe  Fe2  1  0.12500159  0.87499965  0.25000055  1.0
  Fe  Fe3  1  0.87499823  0.12500029  0.74999918  1.0
  O  O4  1  0.79447131  0.75201328  0.45754213  1.0
  O  O5  1  0.33693398  0.79447076  0.54246342  1.0
  O  O6  1  0.75200826  0.79446979  0.95753821  1.0
  O  O7  1  0.79447160  0.33692999  0.04245873  1.0
  O  O8  1  0.66306986  0.20552952  0.45754092  1.0
  O  O9  1  0.20552967  0.24799212  0.54246143  1.0
  O  O10  1  0.24798715  0.20552955  0.04245725  1.0
  O  O11  1  0.20553043  0.66306804  0.95753760  1.0
