# generated using pymatgen
data_VGaO4
_symmetry_space_group_name_H-M   'P 1'
_cell_length_a   5.66001907
_cell_length_b   5.66002314
_cell_length_c   5.66002143
_cell_angle_alpha   112.36318083
_cell_angle_beta   112.36310610
_cell_angle_gamma   103.82979159
_symmetry_Int_Tables_number   1
_chemical_formula_structural   VGaO4
_chemical_formula_sum   'V2 Ga2 O8'
_cell_volume   138.58269119
_cell_formula_units_Z   2
loop_
 _symmetry_equiv_pos_site_id
 _symmetry_equiv_pos_as_xyz
  1  'x, y, z'
loop_
 _atom_site_type_symbol
 _atom_site_label
 _atom_site_symmetry_multiplicity
 _atom_site_fract_x
 _atom_site_fract_y
 _atom_site_fract_z
 _atom_site_occupancy
  V  V0  1  0.62499970  0.37500066  0.24999990  1.0
  V  V1  1  0.37500039  0.62499943  0.75000008  1.0
  Ga  Ga2  1  0.12499870  0.87500060  0.24999992  1.0
  Ga  Ga3  1  0.87500149  0.12499960  0.75000004  1.0
  O  O4  1  0.74625329  0.77541257  0.97084166  1.0
  O  O5  1  0.77541659  0.74626124  0.47084618  1.0
  O  O6  1  0.77541655  0.30457112  0.02915526  1.0
  O  O7  1  0.30457151  0.77541298  0.52915888  1.0
  O  O8  1  0.22458669  0.69542817  0.97084097  1.0
  O  O9  1  0.69542889  0.22458382  0.47084479  1.0
  O  O10  1  0.25373979  0.22458414  0.02915460  1.0
  O  O11  1  0.22458640  0.25374566  0.52915772  1.0
