# generated using pymatgen
data_VInO4
_symmetry_space_group_name_H-M   'P 1'
_cell_length_a   5.85052504
_cell_length_b   5.85052607
_cell_length_c   5.85052733
_cell_angle_alpha   107.71604856
_cell_angle_beta   107.71600278
_cell_angle_gamma   113.04173411
_symmetry_Int_Tables_number   1
_chemical_formula_structural   VInO4
_chemical_formula_sum   'V2 In2 O8'
_cell_volume   153.70482956
_cell_formula_units_Z   2
loop_
 _symmetry_equiv_pos_site_id
 _symmetry_equiv_pos_as_xyz
  1  'x, y, z'
loop_
 _atom_site_type_symbol
 _atom_site_label
 _atom_site_symmetry_multiplicity
 _atom_site_fract_x
 _atom_site_fract_y
 _atom_site_fract_z
 _atom_site_occupancy
  V  V0  1  0.37499980  0.62499997  0.75000027  1.0
  V  V1  1  0.62500003  0.37499988  0.24999970  1.0
  In  In2  1  0.12500044  0.87499981  0.24999991  1.0
  In  In3  1  0.87499965  0.12500026  0.75000013  1.0
  O  O4  1  0.79587363  0.74138975  0.44551629  1.0
  O  O5  1  0.35035871  0.79587141  0.55448715  1.0
  O  O6  1  0.74138475  0.79587145  0.94551348  1.0
  O  O7  1  0.79587341  0.35035826  0.05448470  1.0
  O  O8  1  0.64964174  0.20412630  0.44551554  1.0
  O  O9  1  0.20412865  0.25861534  0.55448647  1.0
  O  O10  1  0.20412882  0.64964118  0.94551252  1.0
  O  O11  1  0.25861037  0.20412639  0.05448385  1.0
