# generated using pymatgen
data_VInO4
_symmetry_space_group_name_H-M   'P 1'
_cell_length_a   4.78504245
_cell_length_b   5.03484527
_cell_length_c   5.73455244
_cell_angle_alpha   89.99999867
_cell_angle_beta   89.99999631
_cell_angle_gamma   92.24758223
_symmetry_Int_Tables_number   1
_chemical_formula_structural   VInO4
_chemical_formula_sum   'V2 In2 O8'
_cell_volume   138.05025625
_cell_formula_units_Z   2
loop_
 _symmetry_equiv_pos_site_id
 _symmetry_equiv_pos_as_xyz
  1  'x, y, z'
loop_
 _atom_site_type_symbol
 _atom_site_label
 _atom_site_symmetry_multiplicity
 _atom_site_fract_x
 _atom_site_fract_y
 _atom_site_fract_z
 _atom_site_occupancy
  V  V0  1  0.00000003  0.75000000  0.17186792  1.0
  V  V1  1  0.99999996  0.25000000  0.82813595  1.0
  In  In2  1  0.50000001  0.74999998  0.69294952  1.0
  In  In3  1  0.50000000  0.25000002  0.30704757  1.0
  O  O4  1  0.25066496  0.38784120  0.62741020  1.0
  O  O5  1  0.74933502  0.11215880  0.62741023  1.0
  O  O6  1  0.74933671  0.61215992  0.37258812  1.0
  O  O7  1  0.25066331  0.88784007  0.37258810  1.0
  O  O8  1  0.20870314  0.44884019  0.09791098  1.0
  O  O9  1  0.79129689  0.05115983  0.09791102  1.0
  O  O10  1  0.79129580  0.55116334  0.90209021  1.0
  O  O11  1  0.20870417  0.94883664  0.90209018  1.0
