# generated using pymatgen
data_VPO5
_symmetry_space_group_name_H-M   'P 1'
_cell_length_a   6.23491312
_cell_length_b   7.22408548
_cell_length_c   7.82610350
_cell_angle_alpha   90.00140745
_cell_angle_beta   90.00000040
_cell_angle_gamma   89.99999966
_symmetry_Int_Tables_number   1
_chemical_formula_structural   VPO5
_chemical_formula_sum   'V4 P4 O20'
_cell_volume   352.49979552
_cell_formula_units_Z   4
loop_
 _symmetry_equiv_pos_site_id
 _symmetry_equiv_pos_as_xyz
  1  'x, y, z'
loop_
 _atom_site_type_symbol
 _atom_site_label
 _atom_site_symmetry_multiplicity
 _atom_site_fract_x
 _atom_site_fract_y
 _atom_site_fract_z
 _atom_site_occupancy
  V  V0  1  0.24999999  0.72773607  0.17323893  1.0
  V  V1  1  0.75000000  0.22773363  0.32676416  1.0
  V  V2  1  0.25000000  0.77226665  0.67323547  1.0
  V  V3  1  0.75000000  0.27226404  0.82676117  1.0
  P  P4  1  0.75000000  0.61335202  0.12206934  1.0
  P  P5  1  0.25000000  0.11335908  0.37794198  1.0
  P  P6  1  0.75000000  0.88664614  0.62205749  1.0
  P  P7  1  0.25000000  0.38664282  0.87793003  1.0
  O  O8  1  0.25000003  0.49900089  0.04508298  1.0
  O  O9  1  0.75000002  0.14983905  0.13371689  1.0
  O  O10  1  0.55210268  0.74083714  0.12901765  1.0
  O  O11  1  0.94789733  0.74083714  0.12901761  1.0
  O  O12  1  0.24999997  0.98245326  0.21909951  1.0
  O  O13  1  0.75000001  0.48245687  0.28090722  1.0
  O  O14  1  0.05209957  0.24083489  0.37099629  1.0
  O  O15  1  0.44790041  0.24083490  0.37099623  1.0
  O  O16  1  0.24999999  0.64983743  0.36627876  1.0
  O  O17  1  0.74999997  0.99899736  0.45491633  1.0
  O  O18  1  0.25000004  0.00100094  0.54508561  1.0
  O  O19  1  0.75000001  0.35016045  0.63371985  1.0
  O  O20  1  0.55209779  0.75916409  0.62900317  1.0
  O  O21  1  0.94790223  0.75916410  0.62900311  1.0
  O  O22  1  0.24999999  0.51754536  0.71909278  1.0
  O  O23  1  0.75000003  0.01754511  0.78090042  1.0
  O  O24  1  0.05210371  0.25916411  0.87098233  1.0
  O  O25  1  0.44789629  0.25916410  0.87098229  1.0
  O  O26  1  0.24999998  0.85016265  0.86628300  1.0
  O  O27  1  0.74999996  0.50099972  0.95491942  1.0
