# generated using pymatgen
data_Y2Ge2O7
_symmetry_space_group_name_H-M   'P 1'
_cell_length_a   7.08375653
_cell_length_b   7.08375709
_cell_length_c   7.08375659
_cell_angle_alpha   59.99998386
_cell_angle_beta   59.99998259
_cell_angle_gamma   59.99998564
_symmetry_Int_Tables_number   1
_chemical_formula_structural   Y2Ge2O7
_chemical_formula_sum   'Y4 Ge4 O14'
_cell_volume   251.34818928
_cell_formula_units_Z   2
loop_
 _symmetry_equiv_pos_site_id
 _symmetry_equiv_pos_as_xyz
  1  'x, y, z'
loop_
 _atom_site_type_symbol
 _atom_site_label
 _atom_site_symmetry_multiplicity
 _atom_site_fract_x
 _atom_site_fract_y
 _atom_site_fract_z
 _atom_site_occupancy
  Y  Y0  1  0.12499998  0.62499998  0.62500002  1.0
  Y  Y1  1  0.62499999  0.62500000  0.62499999  1.0
  Y  Y2  1  0.62500001  0.12499999  0.62500000  1.0
  Y  Y3  1  0.62499997  0.62500000  0.12500000  1.0
  Ge  Ge4  1  0.12500005  0.62500000  0.12500002  1.0
  Ge  Ge5  1  0.12500000  0.12500002  0.62500002  1.0
  Ge  Ge6  1  0.62499998  0.12500003  0.12500000  1.0
  Ge  Ge7  1  0.12500001  0.12499997  0.12500001  1.0
  O  O8  1  0.74999997  0.74999999  0.75000003  1.0
  O  O9  1  0.20291499  0.79708504  0.79708508  1.0
  O  O10  1  0.20291468  0.79708532  0.20291464  1.0
  O  O11  1  0.79708508  0.79708506  0.20291496  1.0
  O  O12  1  0.79708508  0.20291495  0.79708507  1.0
  O  O13  1  0.20291464  0.20291466  0.79708535  1.0
  O  O14  1  0.45291472  0.04708531  0.04708528  1.0
  O  O15  1  0.79708532  0.20291469  0.20291469  1.0
  O  O16  1  0.04708535  0.04708528  0.45291470  1.0
  O  O17  1  0.45291491  0.04708506  0.45291492  1.0
  O  O18  1  0.04708532  0.45291471  0.04708531  1.0
  O  O19  1  0.45291496  0.45291498  0.04708499  1.0
  O  O20  1  0.04708501  0.45291496  0.45291496  1.0
  O  O21  1  0.49999998  0.49999999  0.49999996  1.0
