# generated using pymatgen
data_Y2TiO5
_symmetry_space_group_name_H-M   'P 1'
_cell_length_a   5.89193871
_cell_length_b   5.89193883
_cell_length_c   10.50468043
_cell_angle_alpha   90.00000332
_cell_angle_beta   89.99999733
_cell_angle_gamma   139.54712482
_symmetry_Int_Tables_number   1
_chemical_formula_structural   Y2TiO5
_chemical_formula_sum   'Y4 Ti2 O10'
_cell_volume   236.60566301
_cell_formula_units_Z   2
loop_
 _symmetry_equiv_pos_site_id
 _symmetry_equiv_pos_as_xyz
  1  'x, y, z'
loop_
 _atom_site_type_symbol
 _atom_site_label
 _atom_site_symmetry_multiplicity
 _atom_site_fract_x
 _atom_site_fract_y
 _atom_site_fract_z
 _atom_site_occupancy
  Y  Y0  1  0.14327063  0.85672966  0.92962522  1.0
  Y  Y1  1  0.14327046  0.85672948  0.57037479  1.0
  Y  Y2  1  0.85672951  0.14327050  0.07037480  1.0
  Y  Y3  1  0.85672951  0.14327049  0.42962520  1.0
  Ti  Ti4  1  0.16954138  0.83045849  0.25000002  1.0
  Ti  Ti5  1  0.83045846  0.16954139  0.74999998  1.0
  O  O6  1  0.05086524  0.94913478  0.37673329  1.0
  O  O7  1  0.05086516  0.94913476  0.12326673  1.0
  O  O8  1  0.71051803  0.28948226  0.90811358  1.0
  O  O9  1  0.71051789  0.28948208  0.59188644  1.0
  O  O10  1  0.27712005  0.72288012  0.75000000  1.0
  O  O11  1  0.72288005  0.27711992  0.25000000  1.0
  O  O12  1  0.28948209  0.71051791  0.09188643  1.0
  O  O13  1  0.28948209  0.71051788  0.40811354  1.0
  O  O14  1  0.94913470  0.05086512  0.62326671  1.0
  O  O15  1  0.94913476  0.05086517  0.87673327  1.0
