# generated using pymatgen
data_Y3Si6N11
_symmetry_space_group_name_H-M   'P 1'
_cell_length_a   9.95711456
_cell_length_b   9.95711449
_cell_length_c   4.88766643
_cell_angle_alpha   90.00000070
_cell_angle_beta   90.00000302
_cell_angle_gamma   90.00002900
_symmetry_Int_Tables_number   1
_chemical_formula_structural   Y3Si6N11
_chemical_formula_sum   'Y6 Si12 N22'
_cell_volume   484.58343429
_cell_formula_units_Z   2
loop_
 _symmetry_equiv_pos_site_id
 _symmetry_equiv_pos_as_xyz
  1  'x, y, z'
loop_
 _atom_site_type_symbol
 _atom_site_label
 _atom_site_symmetry_multiplicity
 _atom_site_fract_x
 _atom_site_fract_y
 _atom_site_fract_z
 _atom_site_occupancy
  Y  Y0  1  0.49999997  0.50000000  0.97351472  1.0
  Y  Y1  1  0.99999996  0.99999992  0.97351463  1.0
  Y  Y2  1  0.81686589  0.31686594  0.98349853  1.0
  Y  Y3  1  0.31686588  0.18313399  0.98349813  1.0
  Y  Y4  1  0.68313413  0.81686593  0.98349818  1.0
  Y  Y5  1  0.18313423  0.68313421  0.98349854  1.0
  Si  Si6  1  0.38085232  0.88085230  0.04572599  1.0
  Si  Si7  1  0.88085255  0.61914745  0.04572588  1.0
  Si  Si8  1  0.11914723  0.38085277  0.04572593  1.0
  Si  Si9  1  0.61914699  0.11914700  0.04572616  1.0
  Si  Si10  1  0.70806150  0.57998466  0.53252497  1.0
  Si  Si11  1  0.29193851  0.42001563  0.53252504  1.0
  Si  Si12  1  0.42001576  0.70806093  0.53252550  1.0
  Si  Si13  1  0.57998419  0.29193924  0.53252570  1.0
  Si  Si14  1  0.92001559  0.79193843  0.53252495  1.0
  Si  Si15  1  0.79193924  0.07998412  0.53252565  1.0
  Si  Si16  1  0.20806092  0.92001566  0.53252547  1.0
  Si  Si17  1  0.07998459  0.20806146  0.53252499  1.0
  N  N18  1  0.50000069  0.00000072  0.07575456  1.0
  N  N19  1  0.00000013  0.49999974  0.07575489  1.0
  N  N20  1  0.34725117  0.84725119  0.69751963  1.0
  N  N21  1  0.84725109  0.65274886  0.69751952  1.0
  N  N22  1  0.15274884  0.34725109  0.69751951  1.0
  N  N23  1  0.65274878  0.15274880  0.69751959  1.0
  N  N24  1  0.72284739  0.57962109  0.17822090  1.0
  N  N25  1  0.27715257  0.42037890  0.17822089  1.0
  N  N26  1  0.42037869  0.72284759  0.17822045  1.0
  N  N27  1  0.57962141  0.27715243  0.17822047  1.0
  N  N28  1  0.92037893  0.77715257  0.17822088  1.0
  N  N29  1  0.77715244  0.07962137  0.17822040  1.0
  N  N30  1  0.22284759  0.92037875  0.17822043  1.0
  N  N31  1  0.07962108  0.22284741  0.17822083  1.0
  N  N32  1  0.57911612  0.68132166  0.65570041  1.0
  N  N33  1  0.42088405  0.31867820  0.65570029  1.0
  N  N34  1  0.31867848  0.57911679  0.65570064  1.0
  N  N35  1  0.68132140  0.42088287  0.65570073  1.0
  N  N36  1  0.18132160  0.07911619  0.65570035  1.0
  N  N37  1  0.07911691  0.81867848  0.65570065  1.0
  N  N38  1  0.92088296  0.18132148  0.65570066  1.0
  N  N39  1  0.81867823  0.92088415  0.65570027  1.0
