# generated using pymatgen
data_YGaO3
_symmetry_space_group_name_H-M   'P 1'
_cell_length_a   3.83713668
_cell_length_b   3.83714037
_cell_length_c   3.83713827
_cell_angle_alpha   89.99997700
_cell_angle_beta   89.99998537
_cell_angle_gamma   89.99999552
_symmetry_Int_Tables_number   1
_chemical_formula_structural   YGaO3
_chemical_formula_sum   'Y1 Ga1 O3'
_cell_volume   56.49661205
_cell_formula_units_Z   1
loop_
 _symmetry_equiv_pos_site_id
 _symmetry_equiv_pos_as_xyz
  1  'x, y, z'
loop_
 _atom_site_type_symbol
 _atom_site_label
 _atom_site_symmetry_multiplicity
 _atom_site_fract_x
 _atom_site_fract_y
 _atom_site_fract_z
 _atom_site_occupancy
  Y  Y0  1  0.99999998  0.00000000  0.99999998  1.0
  Ga  Ga1  1  0.49999999  0.49999999  0.50000002  1.0
  O  O2  1  0.50000011  0.50000000  0.99999997  1.0
  O  O3  1  0.49999992  0.99999994  0.49999999  1.0
  O  O4  1  0.00000000  0.50000007  0.50000003  1.0
