# generated using pymatgen
data_YHoO3
_symmetry_space_group_name_H-M   'P 1'
_cell_length_a   6.40610720
_cell_length_b   6.40610741
_cell_length_c   12.72712453
_cell_angle_alpha   90.00000497
_cell_angle_beta   89.99999749
_cell_angle_gamma   120.00004095
_symmetry_Int_Tables_number   1
_chemical_formula_structural   YHoO3
_chemical_formula_sum   'Y6 Ho6 O18'
_cell_volume   452.32351289
_cell_formula_units_Z   6
loop_
 _symmetry_equiv_pos_site_id
 _symmetry_equiv_pos_as_xyz
  1  'x, y, z'
loop_
 _atom_site_type_symbol
 _atom_site_label
 _atom_site_symmetry_multiplicity
 _atom_site_fract_x
 _atom_site_fract_y
 _atom_site_fract_z
 _atom_site_occupancy
  Y  Y0  1  0.33333333  0.66666667  0.23713751  1.0
  Y  Y1  1  0.99999998  0.99999993  0.26945029  1.0
  Y  Y2  1  0.00000001  0.99999990  0.76945033  1.0
  Y  Y3  1  0.33333333  0.66666667  0.73713754  1.0
  Y  Y4  1  0.66666667  0.33333333  0.73713753  1.0
  Y  Y5  1  0.66666667  0.33333333  0.23713749  1.0
  Ho  Ho6  1  0.00000002  0.66705368  0.50135581  1.0
  Ho  Ho7  1  0.00000002  0.33294622  0.00135585  1.0
  Ho  Ho8  1  0.33294628  0.33294619  0.50135584  1.0
  Ho  Ho9  1  0.66705379  0.66705392  0.00135589  1.0
  Ho  Ho10  1  0.33294611  0.99999986  0.00135578  1.0
  Ho  Ho11  1  0.66705377  0.00000006  0.50135568  1.0
  O  O12  1  0.00000009  0.69461462  0.67531453  1.0
  O  O13  1  0.99999996  0.63562209  0.32930388  1.0
  O  O14  1  0.00000000  0.36437785  0.82930383  1.0
  O  O15  1  0.99999992  0.30538537  0.17531455  1.0
  O  O16  1  0.33333333  0.66666667  0.02935078  1.0
  O  O17  1  0.99999993  0.99999997  0.46726541  1.0
  O  O18  1  0.00000007  0.00000011  0.96726540  1.0
  O  O19  1  0.33333333  0.66666667  0.52935080  1.0
  O  O20  1  0.30538538  0.30538542  0.67531454  1.0
  O  O21  1  0.36437786  0.36437787  0.32930388  1.0
  O  O22  1  0.30538536  0.99999994  0.17531454  1.0
  O  O23  1  0.63562208  0.63562210  0.82930385  1.0
  O  O24  1  0.69461462  0.69461459  0.17531453  1.0
  O  O25  1  0.36437790  0.00000002  0.82930388  1.0
  O  O26  1  0.66666667  0.33333333  0.52935080  1.0
  O  O27  1  0.66666667  0.33333333  0.02935081  1.0
  O  O28  1  0.63562217  0.00000000  0.32930392  1.0
  O  O29  1  0.69461463  0.00000010  0.67531454  1.0
