# generated using pymatgen
data_YInO3
_symmetry_space_group_name_H-M   'P 1'
_cell_length_a   6.34840534
_cell_length_b   6.34840515
_cell_length_c   12.36912420
_cell_angle_alpha   90.00000073
_cell_angle_beta   89.99999854
_cell_angle_gamma   120.00003702
_symmetry_Int_Tables_number   1
_chemical_formula_structural   YInO3
_chemical_formula_sum   'Y6 In6 O18'
_cell_volume   431.71655577
_cell_formula_units_Z   6
loop_
 _symmetry_equiv_pos_site_id
 _symmetry_equiv_pos_as_xyz
  1  'x, y, z'
loop_
 _atom_site_type_symbol
 _atom_site_label
 _atom_site_symmetry_multiplicity
 _atom_site_fract_x
 _atom_site_fract_y
 _atom_site_fract_z
 _atom_site_occupancy
  Y  Y0  1  0.33333333  0.66666667  0.23609244  1.0
  Y  Y1  1  0.99999999  0.99999992  0.27057085  1.0
  Y  Y2  1  0.00000000  0.00000007  0.77057090  1.0
  Y  Y3  1  0.33333333  0.66666667  0.73609243  1.0
  Y  Y4  1  0.66666667  0.33333333  0.73609250  1.0
  Y  Y5  1  0.66666667  0.33333333  0.23609247  1.0
  In  In6  1  0.00000002  0.66657565  0.50120286  1.0
  In  In7  1  0.99999998  0.33342434  0.00120287  1.0
  In  In8  1  0.33342440  0.33342441  0.50120287  1.0
  In  In9  1  0.66657560  0.66657558  0.00120287  1.0
  In  In10  1  0.33342437  0.99999997  0.00120287  1.0
  In  In11  1  0.66657566  0.00000004  0.50120286  1.0
  O  O12  1  0.00000007  0.69385480  0.67324867  1.0
  O  O13  1  0.99999996  0.63750358  0.33098419  1.0
  O  O14  1  0.00000002  0.36249643  0.83098421  1.0
  O  O15  1  0.99999988  0.30614518  0.17324868  1.0
  O  O16  1  0.33333333  0.66666667  0.03063400  1.0
  O  O17  1  0.99999985  0.99999984  0.46728397  1.0
  O  O18  1  0.00000017  0.00000016  0.96728398  1.0
  O  O19  1  0.33333333  0.66666667  0.53063402  1.0
  O  O20  1  0.30614526  0.30614528  0.67324863  1.0
  O  O21  1  0.36249649  0.36249650  0.33098423  1.0
  O  O22  1  0.30614524  0.99999989  0.17324866  1.0
  O  O23  1  0.63750352  0.63750354  0.83098421  1.0
  O  O24  1  0.69385475  0.69385473  0.17324865  1.0
  O  O25  1  0.36249644  0.00000002  0.83098421  1.0
  O  O26  1  0.66666667  0.33333333  0.53063401  1.0
  O  O27  1  0.66666667  0.33333333  0.03063401  1.0
  O  O28  1  0.63750355  0.99999995  0.33098420  1.0
  O  O29  1  0.69385476  0.00000009  0.67324867  1.0
