# generated using pymatgen
data_YSbO4
_symmetry_space_group_name_H-M   'P 1'
_cell_length_a   5.16915580
_cell_length_b   5.09615668
_cell_length_c   13.60168090
_cell_angle_alpha   68.09397505
_cell_angle_beta   89.99994813
_cell_angle_gamma   89.99914879
_symmetry_Int_Tables_number   1
_chemical_formula_structural   YSbO4
_chemical_formula_sum   'Y4 Sb4 O16'
_cell_volume   332.43592680
_cell_formula_units_Z   4
loop_
 _symmetry_equiv_pos_site_id
 _symmetry_equiv_pos_as_xyz
  1  'x, y, z'
loop_
 _atom_site_type_symbol
 _atom_site_label
 _atom_site_symmetry_multiplicity
 _atom_site_fract_x
 _atom_site_fract_y
 _atom_site_fract_z
 _atom_site_occupancy
  Y  Y0  1  0.75127055  0.66971412  0.32979351  1.0
  Y  Y1  1  0.74873148  0.66970392  0.82980398  1.0
  Y  Y2  1  0.24872950  0.33029198  0.67020020  1.0
  Y  Y3  1  0.25126842  0.33029018  0.17020234  1.0
  Sb  Sb4  1  0.75014946  0.92945417  0.07029785  1.0
  Sb  Sb5  1  0.74981136  0.92946970  0.57026613  1.0
  Sb  Sb6  1  0.24984857  0.07051928  0.92972967  1.0
  Sb  Sb7  1  0.25018672  0.07055677  0.42970629  1.0
  O  O8  1  0.42964682  0.73457906  0.04640291  1.0
  O  O9  1  0.07034491  0.73456294  0.54640999  1.0
  O  O10  1  0.57034966  0.26543546  0.95358948  1.0
  O  O11  1  0.92965146  0.26542245  0.45359767  1.0
  O  O12  1  0.59724419  0.03471545  0.18245172  1.0
  O  O13  1  0.90276699  0.03471733  0.68245973  1.0
  O  O14  1  0.40276259  0.96528104  0.81754152  1.0
  O  O15  1  0.09724023  0.96528601  0.31754713  1.0
  O  O16  1  0.07064058  0.17175845  0.04689862  1.0
  O  O17  1  0.42936767  0.17175133  0.54690463  1.0
  O  O18  1  0.92936518  0.82824355  0.95309331  1.0
  O  O19  1  0.57063806  0.82824679  0.45310339  1.0
  O  O20  1  0.90283814  0.59923282  0.18199988  1.0
  O  O21  1  0.59715936  0.59921656  0.68200766  1.0
  O  O22  1  0.09715448  0.40078374  0.81799334  1.0
  O  O23  1  0.40283365  0.40076690  0.31799905  1.0
