# generated using pymatgen
data_YScO3
_symmetry_space_group_name_H-M   'P 1'
_cell_length_a   6.20268685
_cell_length_b   6.20268688
_cell_length_c   12.26555125
_cell_angle_alpha   90.00000247
_cell_angle_beta   89.99999893
_cell_angle_gamma   120.00003458
_symmetry_Int_Tables_number   1
_chemical_formula_structural   YScO3
_chemical_formula_sum   'Y6 Sc6 O18'
_cell_volume   408.67424185
_cell_formula_units_Z   6
loop_
 _symmetry_equiv_pos_site_id
 _symmetry_equiv_pos_as_xyz
  1  'x, y, z'
loop_
 _atom_site_type_symbol
 _atom_site_label
 _atom_site_symmetry_multiplicity
 _atom_site_fract_x
 _atom_site_fract_y
 _atom_site_fract_z
 _atom_site_occupancy
  Y  Y0  1  0.33333333  0.66666667  0.23647750  1.0
  Y  Y1  1  0.99999994  0.99999999  0.27432380  1.0
  Y  Y2  1  0.00000007  0.99999999  0.77432379  1.0
  Y  Y3  1  0.33333333  0.66666667  0.73647750  1.0
  Y  Y4  1  0.66666667  0.33333333  0.73647752  1.0
  Y  Y5  1  0.66666667  0.33333333  0.23647751  1.0
  Sc  Sc6  1  0.00000012  0.66635491  0.50190658  1.0
  Sc  Sc7  1  0.99999983  0.33364509  0.00190659  1.0
  Sc  Sc8  1  0.33364536  0.33364541  0.50190658  1.0
  Sc  Sc9  1  0.66635468  0.66635461  0.00190659  1.0
  Sc  Sc10  1  0.33364514  0.99999976  0.00190658  1.0
  Sc  Sc11  1  0.66635485  0.00000022  0.50190657  1.0
  O  O12  1  0.00000011  0.69128598  0.66987752  1.0
  O  O13  1  0.99999995  0.64163059  0.33521731  1.0
  O  O14  1  0.00000002  0.35836943  0.83521728  1.0
  O  O15  1  0.99999992  0.30871402  0.16987753  1.0
  O  O16  1  0.33333333  0.66666667  0.02133509  1.0
  O  O17  1  0.99999997  0.00000004  0.47666183  1.0
  O  O18  1  0.00000004  0.99999997  0.97666183  1.0
  O  O19  1  0.33333333  0.66666667  0.52133510  1.0
  O  O20  1  0.30871416  0.30871415  0.66987749  1.0
  O  O21  1  0.35836956  0.35836960  0.33521730  1.0
  O  O22  1  0.30871399  0.99999992  0.16987753  1.0
  O  O23  1  0.64163042  0.64163038  0.83521728  1.0
  O  O24  1  0.69128582  0.69128587  0.16987751  1.0
  O  O25  1  0.35836952  0.99999996  0.83521728  1.0
  O  O26  1  0.66666667  0.33333333  0.52133508  1.0
  O  O27  1  0.66666667  0.33333333  0.02133508  1.0
  O  O28  1  0.64163051  0.00000001  0.33521731  1.0
  O  O29  1  0.69128602  0.00000007  0.66987752  1.0
