# generated using pymatgen
data_YSeClO3
_symmetry_space_group_name_H-M   'P 1'
_cell_length_a   7.01045563
_cell_length_b   7.42114156
_cell_length_c   8.83909715
_cell_angle_alpha   89.99840946
_cell_angle_beta   90.00044132
_cell_angle_gamma   90.00125667
_symmetry_Int_Tables_number   1
_chemical_formula_structural   YSeClO3
_chemical_formula_sum   'Y4 Se4 Cl4 O12'
_cell_volume   459.85918769
_cell_formula_units_Z   4
loop_
 _symmetry_equiv_pos_site_id
 _symmetry_equiv_pos_as_xyz
  1  'x, y, z'
loop_
 _atom_site_type_symbol
 _atom_site_label
 _atom_site_symmetry_multiplicity
 _atom_site_fract_x
 _atom_site_fract_y
 _atom_site_fract_z
 _atom_site_occupancy
  Y  Y0  1  0.25000205  0.10258250  0.54015863  1.0
  Y  Y1  1  0.74998944  0.39742541  0.04015662  1.0
  Y  Y2  1  0.74999644  0.89740220  0.45984423  1.0
  Y  Y3  1  0.25000935  0.60258963  0.95984553  1.0
  Se  Se4  1  0.74998191  0.28655566  0.63247014  1.0
  Se  Se5  1  0.74997376  0.78653921  0.86754310  1.0
  Se  Se6  1  0.25000193  0.21347772  0.13246749  1.0
  Se  Se7  1  0.24999424  0.71342712  0.36754143  1.0
  Cl  Cl8  1  0.74999959  0.56704551  0.31552457  1.0
  Cl  Cl9  1  0.25000283  0.93295921  0.81552413  1.0
  Cl  Cl10  1  0.74999224  0.06703794  0.18447327  1.0
  Cl  Cl11  1  0.24999558  0.43295749  0.68447266  1.0
  O  O12  1  0.92774335  0.63834708  0.93076842  1.0
  O  O13  1  0.92775894  0.13835024  0.56923084  1.0
  O  O14  1  0.74999853  0.75068759  0.67776184  1.0
  O  O15  1  0.57227336  0.13837403  0.56923043  1.0
  O  O16  1  0.75000790  0.25069095  0.82222597  1.0
  O  O17  1  0.42772251  0.36162493  0.06923713  1.0
  O  O18  1  0.07227622  0.36162425  0.06923646  1.0
  O  O19  1  0.07225014  0.86166028  0.43077442  1.0
  O  O20  1  0.42774585  0.86165400  0.43077449  1.0
  O  O21  1  0.25000283  0.24930981  0.32221795  1.0
  O  O22  1  0.24999375  0.74931182  0.17775269  1.0
  O  O23  1  0.57228724  0.63836543  0.93076754  1.0
