# generated using pymatgen
data_YTaO4
_symmetry_space_group_name_H-M   'P 1'
_cell_length_a   6.15956965
_cell_length_b   6.15957029
_cell_length_c   6.15957262
_cell_angle_alpha   107.26699166
_cell_angle_beta   107.26699977
_cell_angle_gamma   113.97548399
_symmetry_Int_Tables_number   1
_chemical_formula_structural   YTaO4
_chemical_formula_sum   'Y2 Ta2 O8'
_cell_volume   179.05921729
_cell_formula_units_Z   2
loop_
 _symmetry_equiv_pos_site_id
 _symmetry_equiv_pos_as_xyz
  1  'x, y, z'
loop_
 _atom_site_type_symbol
 _atom_site_label
 _atom_site_symmetry_multiplicity
 _atom_site_fract_x
 _atom_site_fract_y
 _atom_site_fract_z
 _atom_site_occupancy
  Y  Y0  1  0.12499984  0.87500014  0.24999998  1.0
  Y  Y1  1  0.87500016  0.12499985  0.75000002  1.0
  Ta  Ta2  1  0.62499976  0.37500008  0.24999995  1.0
  Ta  Ta3  1  0.37500029  0.62499995  0.75000011  1.0
  O  O4  1  0.74907954  0.80567911  0.94340012  1.0
  O  O5  1  0.80567916  0.74907967  0.44340019  1.0
  O  O6  1  0.80567907  0.36227849  0.05659912  1.0
  O  O7  1  0.36227845  0.80567907  0.55659909  1.0
  O  O8  1  0.19432093  0.63772151  0.94340087  1.0
  O  O9  1  0.63772154  0.19432094  0.44340089  1.0
  O  O10  1  0.25092042  0.19432087  0.05659986  1.0
  O  O11  1  0.19432083  0.25092031  0.55659980  1.0
