# generated using pymatgen
data_Zr3Bi2O9
_symmetry_space_group_name_H-M   'P 1'
_cell_length_a   7.57295349
_cell_length_b   7.57297928
_cell_length_c   10.94300909
_cell_angle_alpha   90.00002015
_cell_angle_beta   89.99999611
_cell_angle_gamma   120.00018056
_symmetry_Int_Tables_number   1
_chemical_formula_structural   Zr3Bi2O9
_chemical_formula_sum   'Zr6 Bi4 O18'
_cell_volume   543.49888774
_cell_formula_units_Z   2
loop_
 _symmetry_equiv_pos_site_id
 _symmetry_equiv_pos_as_xyz
  1  'x, y, z'
loop_
 _atom_site_type_symbol
 _atom_site_label
 _atom_site_symmetry_multiplicity
 _atom_site_fract_x
 _atom_site_fract_y
 _atom_site_fract_z
 _atom_site_occupancy
  Zr  Zr0  1  0.69137195  0.91426572  0.74999998  1.0
  Zr  Zr1  1  0.77710799  0.69137606  0.25000000  1.0
  Zr  Zr2  1  0.91426947  0.22289522  0.25000002  1.0
  Zr  Zr3  1  0.08573059  0.77710475  0.75000005  1.0
  Zr  Zr4  1  0.22289199  0.30862376  0.74999993  1.0
  Zr  Zr5  1  0.30862819  0.08573418  0.25000004  1.0
  Bi  Bi6  1  0.33333333  0.66666667  0.48359889  1.0
  Bi  Bi7  1  0.66666667  0.33333333  0.98359889  1.0
  Bi  Bi8  1  0.66666667  0.33333333  0.51640109  1.0
  Bi  Bi9  1  0.33333333  0.66666667  0.01640110  1.0
  O  O10  1  0.45662741  0.09562059  0.39890356  1.0
  O  O11  1  0.36100454  0.45662228  0.89890407  1.0
  O  O12  1  0.09561330  0.63899016  0.89890418  1.0
  O  O13  1  0.90438664  0.36100993  0.39890415  1.0
  O  O14  1  0.63899563  0.54337796  0.39890421  1.0
  O  O15  1  0.54337272  0.90437957  0.89890343  1.0
  O  O16  1  0.54337272  0.90437931  0.60109649  1.0
  O  O17  1  0.63899558  0.54337770  0.10109581  1.0
  O  O18  1  0.90438671  0.36100982  0.10109586  1.0
  O  O19  1  0.09561350  0.63898992  0.60109602  1.0
  O  O20  1  0.19496592  0.27188172  0.25000004  1.0
  O  O21  1  0.92308182  0.19496185  0.74999999  1.0
  O  O22  1  0.27187927  0.07691540  0.75000003  1.0
  O  O23  1  0.72812057  0.92308436  0.24999998  1.0
  O  O24  1  0.07691839  0.80503805  0.24999999  1.0
  O  O25  1  0.80503409  0.72811825  0.74999997  1.0
  O  O26  1  0.45662734  0.09562038  0.10109652  1.0
  O  O27  1  0.36100446  0.45662179  0.60109572  1.0
