# generated using pymatgen
data_ZrMnO3
_symmetry_space_group_name_H-M   'P 1'
_cell_length_a   5.44389974
_cell_length_b   5.62840350
_cell_length_c   7.97755901
_cell_angle_alpha   89.99996740
_cell_angle_beta   90.00002652
_cell_angle_gamma   90.00067351
_symmetry_Int_Tables_number   1
_chemical_formula_structural   ZrMnO3
_chemical_formula_sum   'Zr4 Mn4 O12'
_cell_volume   244.43611243
_cell_formula_units_Z   4
loop_
 _symmetry_equiv_pos_site_id
 _symmetry_equiv_pos_as_xyz
  1  'x, y, z'
loop_
 _atom_site_type_symbol
 _atom_site_label
 _atom_site_symmetry_multiplicity
 _atom_site_fract_x
 _atom_site_fract_y
 _atom_site_fract_z
 _atom_site_occupancy
  Zr  Zr0  1  0.99999758  0.49999984  0.00000022  1.0
  Zr  Zr1  1  0.99999766  0.49999968  0.49999990  1.0
  Zr  Zr2  1  0.50000196  0.99999970  0.00000026  1.0
  Zr  Zr3  1  0.50000204  0.99999945  0.49999991  1.0
  Mn  Mn4  1  0.49389495  0.45683542  0.75000097  1.0
  Mn  Mn5  1  0.50610052  0.54316106  0.24999961  1.0
  Mn  Mn6  1  0.00607981  0.95684730  0.75000000  1.0
  Mn  Mn7  1  0.99392305  0.04315224  0.25000043  1.0
  O  O8  1  0.12570448  0.43401449  0.24999987  1.0
  O  O9  1  0.37430475  0.93401161  0.24999991  1.0
  O  O10  1  0.62569829  0.06598739  0.74999999  1.0
  O  O11  1  0.87429196  0.56598411  0.74999990  1.0
  O  O12  1  0.17858832  0.18337463  0.56760285  1.0
  O  O13  1  0.17858885  0.18337574  0.93239649  1.0
  O  O14  1  0.32141572  0.68337255  0.56760076  1.0
  O  O15  1  0.32141487  0.68337376  0.93239969  1.0
  O  O16  1  0.67858263  0.31662813  0.06759944  1.0
  O  O17  1  0.67858378  0.31662689  0.43239869  1.0
  O  O18  1  0.82141528  0.81662771  0.06760152  1.0
  O  O19  1  0.82141551  0.81662730  0.43239859  1.0
