# generated using pymatgen
data_Ac2AgAu
_symmetry_space_group_name_H-M   'P 1'
_cell_length_a   5.56762992
_cell_length_b   5.55712419
_cell_length_c   5.55365002
_cell_angle_alpha   90.08325092
_cell_angle_beta   60.08803569
_cell_angle_gamma   60.13512411
_symmetry_Int_Tables_number   1
_chemical_formula_structural   Ac2AgAu
_chemical_formula_sum   'Ac2 Ag1 Au1'
_cell_volume   121.82314710
_cell_formula_units_Z   1
loop_
 _symmetry_equiv_pos_site_id
 _symmetry_equiv_pos_as_xyz
  1  'x, y, z'
loop_
 _atom_site_type_symbol
 _atom_site_label
 _atom_site_symmetry_multiplicity
 _atom_site_fract_x
 _atom_site_fract_y
 _atom_site_fract_z
 _atom_site_occupancy
  Ac  Ac0  1  0.55960854  0.20140478  0.16972214  1
  Ac  Ac1  1  0.55873320  0.70262393  0.67026758  1
  Ag  Ag2  1  0.05850297  0.45276022  0.92039041  1
  Au  Au3  1  0.05850982  0.95362112  0.42046951  1
