# generated using pymatgen
data_AcAlC
_symmetry_space_group_name_H-M   'P 1'
_cell_length_a   3.84254949
_cell_length_b   5.78203118
_cell_length_c   5.96041563
_cell_angle_alpha   85.58633928
_cell_angle_beta   89.90988006
_cell_angle_gamma   90.04141975
_symmetry_Int_Tables_number   1
_chemical_formula_structural   AcAlC
_chemical_formula_sum   'Ac2 Al2 C2'
_cell_volume   132.03403855
_cell_formula_units_Z   2
loop_
 _symmetry_equiv_pos_site_id
 _symmetry_equiv_pos_as_xyz
  1  'x, y, z'
loop_
 _atom_site_type_symbol
 _atom_site_label
 _atom_site_symmetry_multiplicity
 _atom_site_fract_x
 _atom_site_fract_y
 _atom_site_fract_z
 _atom_site_occupancy
  Ac  Ac0  1  0.40001016  0.54347172  0.61717289  1
  Ac  Ac1  1  0.40154461  0.02056742  0.11422939  1
  Al  Al2  1  0.90108286  0.54678156  0.15748785  1
  Al  Al3  1  0.90042751  0.03728889  0.58314633  1
  C  C4  1  0.90074517  0.79411607  0.37497684  1
  C  C5  1  0.40126323  0.49595667  0.07029829  1
