# generated using pymatgen
data_AgHg3Br4
_symmetry_space_group_name_H-M   'P 1'
_cell_length_a   7.10917739
_cell_length_b   5.58746162
_cell_length_c   7.70567742
_cell_angle_alpha   70.03127530
_cell_angle_beta   65.57099953
_cell_angle_gamma   91.49082515
_symmetry_Int_Tables_number   1
_chemical_formula_structural   AgHg3Br4
_chemical_formula_sum   'Ag1 Hg3 Br4'
_cell_volume   256.87797599
_cell_formula_units_Z   1
loop_
 _symmetry_equiv_pos_site_id
 _symmetry_equiv_pos_as_xyz
  1  'x, y, z'
loop_
 _atom_site_type_symbol
 _atom_site_label
 _atom_site_symmetry_multiplicity
 _atom_site_fract_x
 _atom_site_fract_y
 _atom_site_fract_z
 _atom_site_occupancy
  Ag  Ag0  1  0.15306296  0.13686460  0.15995304  1
  Hg  Hg1  1  0.84709300  0.40415924  0.62558970  1
  Hg  Hg2  1  0.31565133  0.86935046  0.69134216  1
  Hg  Hg3  1  0.56899705  0.63866551  0.15847578  1
  Br  Br4  1  0.31284267  0.36122081  0.70739282  1
  Br  Br5  1  0.06998183  0.63453633  0.15809428  1
  Br  Br6  1  0.86071924  0.91317657  0.60756269  1
  Br  Br7  1  0.55493986  0.13748402  0.15994574  1
