# generated using pymatgen
data_AgPb2Br3O2
_symmetry_space_group_name_H-M   'P 1'
_cell_length_a   6.26005980
_cell_length_b   6.87676829
_cell_length_c   6.80153882
_cell_angle_alpha   119.65888894
_cell_angle_beta   115.28003490
_cell_angle_gamma   92.31788804
_symmetry_Int_Tables_number   1
_chemical_formula_structural   AgPb2Br3O2
_chemical_formula_sum   'Ag1 Pb2 Br3 O2'
_cell_volume   217.94262505
_cell_formula_units_Z   1
loop_
 _symmetry_equiv_pos_site_id
 _symmetry_equiv_pos_as_xyz
  1  'x, y, z'
loop_
 _atom_site_type_symbol
 _atom_site_label
 _atom_site_symmetry_multiplicity
 _atom_site_fract_x
 _atom_site_fract_y
 _atom_site_fract_z
 _atom_site_occupancy
  Ag  Ag0  1  0.03236023  0.01276880  0.38250996  1
  Pb  Pb1  1  0.34267846  0.36967132  0.09083285  1
  Pb  Pb2  1  0.14507774  0.70519841  0.76966753  1
  Br  Br3  1  0.88481716  0.41834203  0.19959542  1
  Br  Br4  1  0.74295756  0.73873835  0.85005374  1
  Br  Br5  1  0.46996949  -0.01771226  0.32400330  1
  O  O6  1  0.18628020  0.98818312  0.73929072  1
  O  O7  1  0.18179111  0.39389168  0.73845044  1
