# generated using pymatgen
data_AgPd
_symmetry_space_group_name_H-M   'P 1'
_cell_length_a   4.04445769
_cell_length_b   4.92612027
_cell_length_c   4.05947799
_cell_angle_alpha   65.68941469
_cell_angle_beta   89.99130163
_cell_angle_gamma   65.76267782
_symmetry_Int_Tables_number   1
_chemical_formula_structural   AgPd
_chemical_formula_sum   'Ag2 Pd2'
_cell_volume   65.80805179
_cell_formula_units_Z   2
loop_
 _symmetry_equiv_pos_site_id
 _symmetry_equiv_pos_as_xyz
  1  'x, y, z'
loop_
 _atom_site_type_symbol
 _atom_site_label
 _atom_site_symmetry_multiplicity
 _atom_site_fract_x
 _atom_site_fract_y
 _atom_site_fract_z
 _atom_site_occupancy
  Ag  Ag0  1  0.10605298  0.47131126  -0.02213701  1
  Ag  Ag1  1  0.85565304  -0.02854512  0.22764500  1
  Pd  Pd2  1  0.35634102  0.97113905  0.72766504  1
  Pd  Pd3  1  0.60521050  0.47165459  0.47750046  1
