# generated using pymatgen
data_AgSe2
_symmetry_space_group_name_H-M   'P 1'
_cell_length_a   4.22267639
_cell_length_b   4.18333531
_cell_length_c   5.54089062
_cell_angle_alpha   67.59593311
_cell_angle_beta   67.71100462
_cell_angle_gamma   60.21627647
_symmetry_Int_Tables_number   1
_chemical_formula_structural   AgSe2
_chemical_formula_sum   'Ag1 Se2'
_cell_volume   76.30527055
_cell_formula_units_Z   1
loop_
 _symmetry_equiv_pos_site_id
 _symmetry_equiv_pos_as_xyz
  1  'x, y, z'
loop_
 _atom_site_type_symbol
 _atom_site_label
 _atom_site_symmetry_multiplicity
 _atom_site_fract_x
 _atom_site_fract_y
 _atom_site_fract_z
 _atom_site_occupancy
  Ag  Ag0  1  0.54184687  0.82320874  0.28046127  1
  Se  Se1  1  0.11978172  0.40181015  0.54499053  1
  Se  Se2  1  0.96433576  0.24503016  0.01578301  1
