# generated using pymatgen
data_Al2Pd
_symmetry_space_group_name_H-M   'P 1'
_cell_length_a   3.16508069
_cell_length_b   2.80141946
_cell_length_c   5.71754701
_cell_angle_alpha   75.82330927
_cell_angle_beta   90.03231650
_cell_angle_gamma   90.00352589
_symmetry_Int_Tables_number   1
_chemical_formula_structural   Al2Pd
_chemical_formula_sum   'Al2 Pd1'
_cell_volume   49.15193284
_cell_formula_units_Z   1
loop_
 _symmetry_equiv_pos_site_id
 _symmetry_equiv_pos_as_xyz
  1  'x, y, z'
loop_
 _atom_site_type_symbol
 _atom_site_label
 _atom_site_symmetry_multiplicity
 _atom_site_fract_x
 _atom_site_fract_y
 _atom_site_fract_z
 _atom_site_occupancy
  Al  Al0  1  0.31290215  0.19710906  0.26912590  1
  Al  Al1  1  0.31395089  0.90815223  0.84528068  1
  Pd  Pd2  1  0.81338853  0.55255191  0.55719638  1
