# generated using pymatgen
data_Al2Se3
_symmetry_space_group_name_H-M   'P 1'
_cell_length_a   3.95168071
_cell_length_b   4.30509011
_cell_length_c   7.62569537
_cell_angle_alpha   106.81119146
_cell_angle_beta   105.76799636
_cell_angle_gamma   89.96697432
_symmetry_Int_Tables_number   1
_chemical_formula_structural   Al2Se3
_chemical_formula_sum   'Al2 Se3'
_cell_volume   119.08414018
_cell_formula_units_Z   1
loop_
 _symmetry_equiv_pos_site_id
 _symmetry_equiv_pos_as_xyz
  1  'x, y, z'
loop_
 _atom_site_type_symbol
 _atom_site_label
 _atom_site_symmetry_multiplicity
 _atom_site_fract_x
 _atom_site_fract_y
 _atom_site_fract_z
 _atom_site_occupancy
  Al  Al0  1  0.09448010  0.70462910  0.68448263  1
  Al  Al1  1  0.31418591  0.65523805  0.17754433  1
  Se  Se2  1  0.79537329  0.95276802  0.14757317  1
  Se  Se3  1  0.05259261  0.28574723  0.84625702  1
  Se  Se4  1  0.48110663  0.51917619  0.48109974  1
