# generated using pymatgen
data_Ba2Ga2Br6N
_symmetry_space_group_name_H-M   'P 1'
_cell_length_a   7.27225057
_cell_length_b   6.51165587
_cell_length_c   8.27556037
_cell_angle_alpha   84.52591943
_cell_angle_beta   97.05293643
_cell_angle_gamma   71.75877326
_symmetry_Int_Tables_number   1
_chemical_formula_structural   Ba2Ga2Br6N
_chemical_formula_sum   'Ba2 Ga2 Br6 N1'
_cell_volume   365.63226808
_cell_formula_units_Z   1
loop_
 _symmetry_equiv_pos_site_id
 _symmetry_equiv_pos_as_xyz
  1  'x, y, z'
loop_
 _atom_site_type_symbol
 _atom_site_label
 _atom_site_symmetry_multiplicity
 _atom_site_fract_x
 _atom_site_fract_y
 _atom_site_fract_z
 _atom_site_occupancy
  Ba  Ba0  1  0.83953837  0.64226334  0.60755648  1
  Ba  Ba1  1  0.27747052  0.83606142  0.05232810  1
  Ga  Ga2  1  0.90204357  0.65188785  0.18076205  1
  Ga  Ga3  1  0.21826312  0.82777664  0.47508721  1
  Br  Br4  1  0.11107483  0.40865103  -0.01745835  1
  Br  Br5  1  0.67858713  0.44445034  0.27263021  1
  Br  Br6  1  0.44393212  0.54360613  0.71399632  1
  Br  Br7  1  0.44493380  0.03411684  0.38633945  1
  Br  Br8  1  0.67385823  0.93105398  0.93814996  1
  Br  Br9  1  1.00867572  0.06711408  0.67240287  1
  N  N10  1  0.06450878  0.74423091  0.32072405  1
