# generated using pymatgen
data_Ba2TbRuO6
_symmetry_space_group_name_H-M   'P 1'
_cell_length_a   5.92939834
_cell_length_b   5.97207289
_cell_length_c   8.78180304
_cell_angle_alpha   90.04152541
_cell_angle_beta   90.19298046
_cell_angle_gamma   89.88578906
_symmetry_Int_Tables_number   1
_chemical_formula_structural   Ba2TbRuO6
_chemical_formula_sum   'Ba4 Tb2 Ru2 O12'
_cell_volume   310.96820136
_cell_formula_units_Z   2
loop_
 _symmetry_equiv_pos_site_id
 _symmetry_equiv_pos_as_xyz
  1  'x, y, z'
loop_
 _atom_site_type_symbol
 _atom_site_label
 _atom_site_symmetry_multiplicity
 _atom_site_fract_x
 _atom_site_fract_y
 _atom_site_fract_z
 _atom_site_occupancy
  Ba  Ba0  1  0.30588266  0.40817827  0.82260848  1
  Ba  Ba1  1  0.30556124  0.38479512  0.32257526  1
  Ba  Ba2  1  0.80649540  0.89991410  0.81973565  1
  Ba  Ba3  1  0.80542622  0.89264566  0.32010665  1
  Tb  Tb4  1  0.80672560  0.39328399  0.57366821  1
  Tb  Tb5  1  0.80630807  0.39914813  0.07363215  1
  Ru  Ru6  1  0.30578423  0.90387288  0.05666573  1
  Ru  Ru7  1  0.30719409  0.88882440  0.55682956  1
  O  O8  1  0.08081023  0.12663991  0.55238690  1
  O  O9  1  0.54557129  0.67882279  0.05198423  1
  O  O10  1  0.29963004  0.94647089  0.84430587  1
  O  O11  1  0.08393942  0.66240192  0.05635170  1
  O  O12  1  0.06827816  0.12051626  0.10039568  1
  O  O13  1  0.54255038  0.11744300  0.55614867  1
  O  O14  1  0.52935101  0.13631797  0.09597897  1
  O  O15  1  0.80324616  0.43976146  0.32426153  1
  O  O16  1  0.81217564  0.35269042  0.82436560  1
  O  O17  1  0.53355347  0.65988060  0.60024544  1
  O  O18  1  0.31039425  0.84565220  0.34447523  1
  O  O19  1  0.07196252  0.66847170  0.59616129  1
