# generated using pymatgen
data_Ba3In3SnSe2O5
_symmetry_space_group_name_H-M   'P 1'
_cell_length_a   5.86951170
_cell_length_b   6.24430482
_cell_length_c   9.85992365
_cell_angle_alpha   82.11322149
_cell_angle_beta   94.20148214
_cell_angle_gamma   77.84158058
_symmetry_Int_Tables_number   1
_chemical_formula_structural   Ba3In3SnSe2O5
_chemical_formula_sum   'Ba3 In3 Sn1 Se2 O5'
_cell_volume   347.97563241
_cell_formula_units_Z   1
loop_
 _symmetry_equiv_pos_site_id
 _symmetry_equiv_pos_as_xyz
  1  'x, y, z'
loop_
 _atom_site_type_symbol
 _atom_site_label
 _atom_site_symmetry_multiplicity
 _atom_site_fract_x
 _atom_site_fract_y
 _atom_site_fract_z
 _atom_site_occupancy
  Ba  Ba0  1  -0.01609263  0.43441853  0.82983094  1
  Ba  Ba1  1  0.39565214  0.67602365  0.21551820  1
  Ba  Ba2  1  0.43341233  0.11710034  0.48698223  1
  In  In3  1  0.94872001  0.71849603  0.44845904  1
  In  In4  1  0.30922471  0.85922049  0.84129625  1
  In  In5  1  0.54679829  0.21350671  0.03122122  1
  Sn  Sn6  1  0.96396401  0.24552375  0.20438169  1
  Se  Se7  1  0.37716658  0.57853064  0.62444032  1
  Se  Se8  1  0.76005193  0.97668284  0.82837050  1
  O  O9  1  0.34189109  0.54113511  0.97231672  1
  O  O10  1  0.13195986  0.96816239  0.33551659  1
  O  O11  1  0.08669677  0.45640668  0.32016591  1
  O  O12  1  0.27939355  0.04550707  0.02012688  1
  O  O13  1  0.61680927  0.22797028  0.25231736  1
