# generated using pymatgen
data_Ba3NaCa2SnSbN2
_symmetry_space_group_name_H-M   'P 1'
_cell_length_a   7.74320476
_cell_length_b   7.41594326
_cell_length_c   7.30778805
_cell_angle_alpha   63.76746677
_cell_angle_beta   58.59967279
_cell_angle_gamma   57.62299323
_symmetry_Int_Tables_number   1
_chemical_formula_structural   Ba3NaCa2SnSbN2
_chemical_formula_sum   'Ba3 Na1 Ca2 Sn1 Sb1 N2'
_cell_volume   294.66148824
_cell_formula_units_Z   1
loop_
 _symmetry_equiv_pos_site_id
 _symmetry_equiv_pos_as_xyz
  1  'x, y, z'
loop_
 _atom_site_type_symbol
 _atom_site_label
 _atom_site_symmetry_multiplicity
 _atom_site_fract_x
 _atom_site_fract_y
 _atom_site_fract_z
 _atom_site_occupancy
  Ba  Ba0  1  0.66215645  0.71251403  0.83333478  1
  Ba  Ba1  1  0.16204710  0.70806184  0.83711149  1
  Ba  Ba2  1  0.65958867  0.21095306  0.33334908  1
  Na  Na3  1  0.15704961  0.21046075  0.33408935  1
  Ca  Ca4  1  0.15951902  0.21103107  0.83303428  1
  Ca  Ca5  1  0.65849853  0.71070398  0.33554243  1
  Sn  Sn6  1  0.66275341  0.21023891  0.83323527  1
  Sb  Sb7  1  0.16121383  0.71038885  0.33547642  1
  N  N8  1  0.90811005  0.46188097  0.08407068  1
  N  N9  1  0.41137422  0.95878171  0.58766870  1
