# generated using pymatgen
data_Ba3SbO4
_symmetry_space_group_name_H-M   'P 1'
_cell_length_a   5.46537851
_cell_length_b   5.59608100
_cell_length_c   5.62765546
_cell_angle_alpha   90.18070247
_cell_angle_beta   90.45605169
_cell_angle_gamma   89.18745558
_symmetry_Int_Tables_number   1
_chemical_formula_structural   Ba3SbO4
_chemical_formula_sum   'Ba3 Sb1 O4'
_cell_volume   172.09660304
_cell_formula_units_Z   1
loop_
 _symmetry_equiv_pos_site_id
 _symmetry_equiv_pos_as_xyz
  1  'x, y, z'
loop_
 _atom_site_type_symbol
 _atom_site_label
 _atom_site_symmetry_multiplicity
 _atom_site_fract_x
 _atom_site_fract_y
 _atom_site_fract_z
 _atom_site_occupancy
  Ba  Ba0  1  0.55677308  0.47687380  0.62028134  1
  Ba  Ba1  1  0.05776954  0.47095604  0.12591679  1
  Ba  Ba2  1  0.05775913  0.97251186  0.62799342  1
  Sb  Sb3  1  0.57407995  0.96202760  0.13885346  1
  O  O4  1  0.54810531  0.59348305  0.14222460  1
  O  O5  1  0.94571951  0.97889194  0.13284074  1
  O  O6  1  0.56057452  0.95605608  0.50607731  1
  O  O7  1  0.06102037  0.46363322  0.63889714  1
