# generated using pymatgen
data_Ba4In3Hg
_symmetry_space_group_name_H-M   'P 1'
_cell_length_a   6.89586099
_cell_length_b   6.89208599
_cell_length_c   6.46630036
_cell_angle_alpha   89.98908018
_cell_angle_beta   89.97324428
_cell_angle_gamma   101.11897718
_symmetry_Int_Tables_number   1
_chemical_formula_structural   Ba4In3Hg
_chemical_formula_sum   'Ba4 In3 Hg1'
_cell_volume   301.55414401
_cell_formula_units_Z   1
loop_
 _symmetry_equiv_pos_site_id
 _symmetry_equiv_pos_as_xyz
  1  'x, y, z'
loop_
 _atom_site_type_symbol
 _atom_site_label
 _atom_site_symmetry_multiplicity
 _atom_site_fract_x
 _atom_site_fract_y
 _atom_site_fract_z
 _atom_site_occupancy
  Ba  Ba0  1  0.33458956  0.33131027  0.71210309  1
  Ba  Ba1  1  0.97627375  0.68943722  0.71212009  1
  Ba  Ba2  1  0.02758049  0.02880634  0.21338182  1
  Ba  Ba3  1  0.67271408  0.38417343  0.21324006  1
  In  In4  1  0.50318966  0.85841169  0.46474219  1
  In  In5  1  0.20380408  0.55990849  0.21182534  1
  In  In6  1  0.50231421  0.85893097  0.96006299  1
  Hg  Hg7  1  0.81163199  0.16615948  0.71594274  1
