# generated using pymatgen
data_BaBi
_symmetry_space_group_name_H-M   'P 1'
_cell_length_a   7.51753680
_cell_length_b   7.52089070
_cell_length_c   8.13182845
_cell_angle_alpha   57.22999535
_cell_angle_beta   57.25715463
_cell_angle_gamma   65.66584069
_symmetry_Int_Tables_number   1
_chemical_formula_structural   BaBi
_chemical_formula_sum   'Ba4 Bi4'
_cell_volume   320.50447812
_cell_formula_units_Z   4
loop_
 _symmetry_equiv_pos_site_id
 _symmetry_equiv_pos_as_xyz
  1  'x, y, z'
loop_
 _atom_site_type_symbol
 _atom_site_label
 _atom_site_symmetry_multiplicity
 _atom_site_fract_x
 _atom_site_fract_y
 _atom_site_fract_z
 _atom_site_occupancy
  Ba  Ba0  1  0.02280727  0.61125944  0.71789037  1
  Ba  Ba1  1  0.02112043  0.61293370  0.21682932  1
  Ba  Ba2  1  0.52386743  0.11405353  0.71717040  1
  Ba  Ba3  1  0.52003161  0.11424773  0.21925600  1
  Bi  Bi4  1  0.02112635  0.11381970  0.72024881  1
  Bi  Bi5  1  0.52166944  0.61395637  0.21743357  1
  Bi  Bi6  1  0.02310585  0.11055168  0.21943919  1
  Bi  Bi7  1  0.52148376  0.61461351  0.71752867  1
