# generated using pymatgen
data_BaCeO2
_symmetry_space_group_name_H-M   'P 1'
_cell_length_a   3.76980364
_cell_length_b   3.76622108
_cell_length_c   6.13581555
_cell_angle_alpha   73.20795414
_cell_angle_beta   72.97020739
_cell_angle_gamma   59.90067523
_symmetry_Int_Tables_number   1
_chemical_formula_structural   BaCeO2
_chemical_formula_sum   'Ba1 Ce1 O2'
_cell_volume   70.99406278
_cell_formula_units_Z   1
loop_
 _symmetry_equiv_pos_site_id
 _symmetry_equiv_pos_as_xyz
  1  'x, y, z'
loop_
 _atom_site_type_symbol
 _atom_site_label
 _atom_site_symmetry_multiplicity
 _atom_site_fract_x
 _atom_site_fract_y
 _atom_site_fract_z
 _atom_site_occupancy
  Ba  Ba0  1  0.91931924  0.06100913  0.97780983  1
  Ce  Ce1  1  0.41990068  0.56100817  0.47776655  1
  O  O2  1  0.68751501  0.83101359  0.67131416  1
  O  O3  1  0.15175641  0.29111487  0.28423600  1
