# generated using pymatgen
data_BaHgAs
_symmetry_space_group_name_H-M   'P 1'
_cell_length_a   4.70474895
_cell_length_b   6.40866249
_cell_length_c   7.26529652
_cell_angle_alpha   77.65901954
_cell_angle_beta   89.87138693
_cell_angle_gamma   111.49162159
_symmetry_Int_Tables_number   1
_chemical_formula_structural   BaHgAs
_chemical_formula_sum   'Ba2 Hg2 As2'
_cell_volume   198.33310860
_cell_formula_units_Z   2
loop_
 _symmetry_equiv_pos_site_id
 _symmetry_equiv_pos_as_xyz
  1  'x, y, z'
loop_
 _atom_site_type_symbol
 _atom_site_label
 _atom_site_symmetry_multiplicity
 _atom_site_fract_x
 _atom_site_fract_y
 _atom_site_fract_z
 _atom_site_occupancy
  Ba  Ba0  1  0.36903766  0.80011094  0.86192709  1
  Ba  Ba1  1  0.68196105  0.42271833  0.47128638  1
  Hg  Hg2  1  0.08130464  0.21992110  0.15682004  1
  Hg  Hg3  1  0.38970716  0.83665927  0.32605588  1
  As  As4  1  0.64178292  0.33999766  -0.03057273  1
  As  As5  1  0.97374108  0.00653774  0.53757627  1
