# generated using pymatgen
data_BaHoO3
_symmetry_space_group_name_H-M   'P 1'
_cell_length_a   4.40539775
_cell_length_b   4.40615422
_cell_length_c   8.83573922
_cell_angle_alpha   89.98885618
_cell_angle_beta   89.91860858
_cell_angle_gamma   89.99412662
_symmetry_Int_Tables_number   1
_chemical_formula_structural   BaHoO3
_chemical_formula_sum   'Ba2 Ho2 O6'
_cell_volume   171.50913644
_cell_formula_units_Z   2
loop_
 _symmetry_equiv_pos_site_id
 _symmetry_equiv_pos_as_xyz
  1  'x, y, z'
loop_
 _atom_site_type_symbol
 _atom_site_label
 _atom_site_symmetry_multiplicity
 _atom_site_fract_x
 _atom_site_fract_y
 _atom_site_fract_z
 _atom_site_occupancy
  Ba  Ba0  1  0.41355949  0.21764326  0.88571274  1
  Ba  Ba1  1  0.41870293  0.21585512  0.38617269  1
  Ho  Ho2  1  0.91642869  0.71487659  0.13627226  1
  Ho  Ho3  1  0.91451012  0.71587005  0.63628442  1
  O  O4  1  0.91557739  0.21465554  0.13445450  1
  O  O5  1  0.41421466  0.71445592  0.63771601  1
  O  O6  1  0.91141943  0.71611684  0.38645979  1
  O  O7  1  0.92058761  0.71449621  0.88634045  1
  O  O8  1  0.91029925  0.21572594  0.63626235  1
  O  O9  1  0.41632168  0.71151397  0.13721835  1
