# generated using pymatgen
data_BaLa2In3CuPt2
_symmetry_space_group_name_H-M   'P 1'
_cell_length_a   5.52704073
_cell_length_b   5.48999171
_cell_length_c   8.77392481
_cell_angle_alpha   99.18334904
_cell_angle_beta   97.79685062
_cell_angle_gamma   88.43904020
_symmetry_Int_Tables_number   1
_chemical_formula_structural   BaLa2In3CuPt2
_chemical_formula_sum   'Ba1 La2 In3 Cu1 Pt2'
_cell_volume   260.38448477
_cell_formula_units_Z   1
loop_
 _symmetry_equiv_pos_site_id
 _symmetry_equiv_pos_as_xyz
  1  'x, y, z'
loop_
 _atom_site_type_symbol
 _atom_site_label
 _atom_site_symmetry_multiplicity
 _atom_site_fract_x
 _atom_site_fract_y
 _atom_site_fract_z
 _atom_site_occupancy
  Ba  Ba0  1  0.81983053  0.06389421  0.44038886  1
  La  La1  1  0.48739175  0.68582011  0.99080918  1
  La  La2  1  0.96562484  0.19233023  0.99278597  1
  In  In3  1  0.95736824  0.63621100  0.73655636  1
  In  In4  1  0.30431113  0.53641977  0.34670453  1
  In  In5  1  0.39526888  0.11213204  0.73744196  1
  Cu  Cu6  1  0.45860374  0.57631025  0.64025253  1
  Pt  Pt7  1  0.01477302  0.71756491  0.10447614  1
  Pt  Pt8  1  0.48507487  0.21532748  0.10400338  1
