# generated using pymatgen
data_BaMgClF
_symmetry_space_group_name_H-M   'P 1'
_cell_length_a   4.06305572
_cell_length_b   4.18754989
_cell_length_c   5.98312585
_cell_angle_alpha   106.74325929
_cell_angle_beta   90.52700871
_cell_angle_gamma   90.08199502
_symmetry_Int_Tables_number   1
_chemical_formula_structural   BaMgClF
_chemical_formula_sum   'Ba1 Mg1 Cl1 F1'
_cell_volume   97.47766518
_cell_formula_units_Z   1
loop_
 _symmetry_equiv_pos_site_id
 _symmetry_equiv_pos_as_xyz
  1  'x, y, z'
loop_
 _atom_site_type_symbol
 _atom_site_label
 _atom_site_symmetry_multiplicity
 _atom_site_fract_x
 _atom_site_fract_y
 _atom_site_fract_z
 _atom_site_occupancy
  Ba  Ba0  1  0.49839381  0.68353469  0.05429751  1
  Mg  Mg1  1  -0.00200043  0.39446599  0.48033006  1
  Cl  Cl2  1  -0.00311649  0.06818016  0.79612180  1
  F  F3  1  0.49684886  0.47612844  0.59001801  1
