# generated using pymatgen
data_BaMgHO2
_symmetry_space_group_name_H-M   'P 1'
_cell_length_a   4.26876964
_cell_length_b   3.97608152
_cell_length_c   5.26642440
_cell_angle_alpha   90.06533481
_cell_angle_beta   113.67806030
_cell_angle_gamma   90.13940077
_symmetry_Int_Tables_number   1
_chemical_formula_structural   BaMgHO2
_chemical_formula_sum   'Ba1 Mg1 H1 O2'
_cell_volume   81.86152713
_cell_formula_units_Z   1
loop_
 _symmetry_equiv_pos_site_id
 _symmetry_equiv_pos_as_xyz
  1  'x, y, z'
loop_
 _atom_site_type_symbol
 _atom_site_label
 _atom_site_symmetry_multiplicity
 _atom_site_fract_x
 _atom_site_fract_y
 _atom_site_fract_z
 _atom_site_occupancy
  Ba  Ba0  1  0.06554486  0.29363842  0.08792630  1
  Mg  Mg1  1  0.75161658  0.79433607  0.46345717  1
  H  H2  1  0.44001320  0.79125678  0.83830383  1
  O  O3  1  0.54501120  0.79281408  0.04464252  1
  O  O4  1  0.78054394  0.29448569  0.52341177  1
