# generated using pymatgen
data_BaNaIn2Cu2AgAs4
_symmetry_space_group_name_H-M   'P 1'
_cell_length_a   4.25850955
_cell_length_b   4.26656448
_cell_length_c   14.05920013
_cell_angle_alpha   98.67540540
_cell_angle_beta   98.76108937
_cell_angle_gamma   90.06945733
_symmetry_Int_Tables_number   1
_chemical_formula_structural   BaNaIn2Cu2AgAs4
_chemical_formula_sum   'Ba1 Na1 In2 Cu2 Ag1 As4'
_cell_volume   249.49898673
_cell_formula_units_Z   1
loop_
 _symmetry_equiv_pos_site_id
 _symmetry_equiv_pos_as_xyz
  1  'x, y, z'
loop_
 _atom_site_type_symbol
 _atom_site_label
 _atom_site_symmetry_multiplicity
 _atom_site_fract_x
 _atom_site_fract_y
 _atom_site_fract_z
 _atom_site_occupancy
  Ba  Ba0  1  0.93119059  0.25198340  0.05086591  1
  Na  Na1  1  0.66156441  0.97862905  0.50449898  1
  In  In2  1  0.05939533  0.87764152  0.30343997  1
  In  In3  1  0.23845642  0.56086976  0.66793517  1
  Cu  Cu4  1  0.82182105  0.64489048  0.83517092  1
  Cu  Cu5  1  0.32385615  0.14607443  0.83635792  1
  Ag  Ag6  1  0.55963176  0.37676915  0.30165967  1
  As  As7  1  0.36866750  0.69148834  0.92819618  1
  As  As8  1  0.49143593  0.81145800  0.16955569  1
  As  As9  1  0.12627272  0.44233372  0.43391955  1
  As  As10  1  0.76894220  0.09107103  0.72867462  1
