# generated using pymatgen
data_BaSrY3O5
_symmetry_space_group_name_H-M   'P 1'
_cell_length_a   6.08932328
_cell_length_b   6.79743572
_cell_length_c   9.28211573
_cell_angle_alpha   79.79068110
_cell_angle_beta   90.49164401
_cell_angle_gamma   90.92297730
_symmetry_Int_Tables_number   1
_chemical_formula_structural   BaSrY3O5
_chemical_formula_sum   'Ba2 Sr2 Y6 O10'
_cell_volume   378.06469476
_cell_formula_units_Z   2
loop_
 _symmetry_equiv_pos_site_id
 _symmetry_equiv_pos_as_xyz
  1  'x, y, z'
loop_
 _atom_site_type_symbol
 _atom_site_label
 _atom_site_symmetry_multiplicity
 _atom_site_fract_x
 _atom_site_fract_y
 _atom_site_fract_z
 _atom_site_occupancy
  Ba  Ba0  1  0.78890679  0.16374868  0.21702314  1
  Ba  Ba1  1  0.29842767  0.18629319  0.49923697  1
  Sr  Sr2  1  0.81022872  0.69675078  0.98056423  1
  Sr  Sr3  1  0.27763638  0.65273990  0.73621649  1
  Y  Y4  1  0.29136536  0.42714245  0.10921898  1
  Y  Y5  1  0.79597135  0.92247257  0.60729326  1
  Y  Y6  1  0.29663142  0.07389557  0.92461081  1
  Y  Y7  1  0.78999864  0.27612624  0.79162723  1
  Y  Y8  1  0.79212267  0.56609690  0.42063214  1
  Y  Y9  1  0.29590112  0.78346633  0.29611224  1
  O  O10  1  0.02140661  0.98227408  0.79054225  1
  O  O11  1  0.02152685  0.54684828  0.23642750  1
  O  O12  1  0.84108983  0.24740669  0.52588245  1
  O  O13  1  0.06701197  0.80277129  0.48079357  1
  O  O14  1  0.49780761  0.48485041  0.29905813  1
  O  O15  1  0.06402881  0.36764034  0.92687310  1
  O  O16  1  0.24625090  0.10180677  0.19013304  1
  O  O17  1  0.59096061  0.86472435  0.41673825  1
  O  O18  1  0.52942351  1.01015189  0.75194355  1
  O  O19  1  0.55636597  0.34000654  0.96351553  1
