# generated using pymatgen
data_BaTbGaSb
_symmetry_space_group_name_H-M   'P 1'
_cell_length_a   4.23003711
_cell_length_b   4.77770735
_cell_length_c   6.73881090
_cell_angle_alpha   89.07689175
_cell_angle_beta   85.05154052
_cell_angle_gamma   90.00628779
_symmetry_Int_Tables_number   1
_chemical_formula_structural   BaTbGaSb
_chemical_formula_sum   'Ba1 Tb1 Ga1 Sb1'
_cell_volume   135.66516884
_cell_formula_units_Z   1
loop_
 _symmetry_equiv_pos_site_id
 _symmetry_equiv_pos_as_xyz
  1  'x, y, z'
loop_
 _atom_site_type_symbol
 _atom_site_label
 _atom_site_symmetry_multiplicity
 _atom_site_fract_x
 _atom_site_fract_y
 _atom_site_fract_z
 _atom_site_occupancy
  Ba  Ba0  1  0.30807448  0.07542428  0.29304095  1
  Tb  Tb1  1  0.78395895  0.58170457  0.79679101  1
  Ga  Ga2  1  0.80580722  0.57498390  0.30157368  1
  Sb  Sb3  1  0.27663520  0.08238964  0.79486923  1
