# generated using pymatgen
data_BaYGe3Ru3N2
_symmetry_space_group_name_H-M   'P 1'
_cell_length_a   4.85589554
_cell_length_b   5.85601239
_cell_length_c   6.83927183
_cell_angle_alpha   73.45417878
_cell_angle_beta   79.88271936
_cell_angle_gamma   104.42843896
_symmetry_Int_Tables_number   1
_chemical_formula_structural   BaYGe3Ru3N2
_chemical_formula_sum   'Ba1 Y1 Ge3 Ru3 N2'
_cell_volume   174.06215865
_cell_formula_units_Z   1
loop_
 _symmetry_equiv_pos_site_id
 _symmetry_equiv_pos_as_xyz
  1  'x, y, z'
loop_
 _atom_site_type_symbol
 _atom_site_label
 _atom_site_symmetry_multiplicity
 _atom_site_fract_x
 _atom_site_fract_y
 _atom_site_fract_z
 _atom_site_occupancy
  Ba  Ba0  1  0.82170923  0.29271616  0.36293479  1
  Y  Y1  1  0.93942966  0.74199663  0.58805263  1
  Ge  Ge2  1  0.48493955  0.50300787  0.03095249  1
  Ge  Ge3  1  0.73539016  0.19667461  0.90662302  1
  Ge  Ge4  1  0.10075664  0.93633699  0.11548794  1
  Ru  Ru5  1  0.39397499  0.87686021  0.80525171  1
  Ru  Ru6  1  0.53312902  0.79733338  0.23487801  1
  Ru  Ru7  1  0.28621472  0.36196468  0.73099134  1
  N  N8  1  0.18837571  0.08854767  0.63450475  1
  N  N9  1  0.44398114  0.71790203  0.54783766  1
