# generated using pymatgen
data_BiSbS2
_symmetry_space_group_name_H-M   'P 1'
_cell_length_a   4.24103368
_cell_length_b   5.67463849
_cell_length_c   5.79579851
_cell_angle_alpha   76.25900826
_cell_angle_beta   67.78334125
_cell_angle_gamma   69.27361901
_symmetry_Int_Tables_number   1
_chemical_formula_structural   BiSbS2
_chemical_formula_sum   'Bi1 Sb1 S2'
_cell_volume   119.90179384
_cell_formula_units_Z   1
loop_
 _symmetry_equiv_pos_site_id
 _symmetry_equiv_pos_as_xyz
  1  'x, y, z'
loop_
 _atom_site_type_symbol
 _atom_site_label
 _atom_site_symmetry_multiplicity
 _atom_site_fract_x
 _atom_site_fract_y
 _atom_site_fract_z
 _atom_site_occupancy
  Bi  Bi0  1  0.03270193  0.81872170  0.55866772  1
  Sb  Sb1  1  0.73163274  0.14462158  0.15421978  1
  S  S2  1  0.24075193  0.11481684  0.75838551  1
  S  S3  1  0.71225833  0.68488025  0.24788164  1
