# generated using pymatgen
data_Ca2PrIn
_symmetry_space_group_name_H-M   'P 1'
_cell_length_a   3.65090299
_cell_length_b   3.65025442
_cell_length_c   10.11156880
_cell_angle_alpha   89.99409408
_cell_angle_beta   89.99047574
_cell_angle_gamma   89.88292611
_symmetry_Int_Tables_number   1
_chemical_formula_structural   Ca2PrIn
_chemical_formula_sum   'Ca2 Pr1 In1'
_cell_volume   134.75381054
_cell_formula_units_Z   1
loop_
 _symmetry_equiv_pos_site_id
 _symmetry_equiv_pos_as_xyz
  1  'x, y, z'
loop_
 _atom_site_type_symbol
 _atom_site_label
 _atom_site_symmetry_multiplicity
 _atom_site_fract_x
 _atom_site_fract_y
 _atom_site_fract_z
 _atom_site_occupancy
  Ca  Ca0  1  0.55777125  0.85724880  0.79404671  1
  Ca  Ca1  1  0.55675804  0.85711421  0.37143966  1
  Pr  Pr2  1  0.05548907  0.35796077  0.08281184  1
  In  In3  1  0.05787525  0.35678179  0.58268812  1
