# generated using pymatgen
data_Ca3LaCl8
_symmetry_space_group_name_H-M   'P 1'
_cell_length_a   6.75546940
_cell_length_b   7.21763714
_cell_length_c   6.94442717
_cell_angle_alpha   102.47764962
_cell_angle_beta   91.67097864
_cell_angle_gamma   90.02763623
_symmetry_Int_Tables_number   1
_chemical_formula_structural   Ca3LaCl8
_chemical_formula_sum   'Ca3 La1 Cl8'
_cell_volume   330.45386269
_cell_formula_units_Z   1
loop_
 _symmetry_equiv_pos_site_id
 _symmetry_equiv_pos_as_xyz
  1  'x, y, z'
loop_
 _atom_site_type_symbol
 _atom_site_label
 _atom_site_symmetry_multiplicity
 _atom_site_fract_x
 _atom_site_fract_y
 _atom_site_fract_z
 _atom_site_occupancy
  Ca  Ca0  1  0.79638598  0.06395061  0.35881069  1
  Ca  Ca1  1  0.27592283  0.16435574  0.80903828  1
  Ca  Ca2  1  0.86749862  0.66490048  0.79737771  1
  La  La3  1  0.39215813  0.56911507  0.37583808  1
  Cl  Cl4  1  0.12001862  0.49007891  0.03338918  1
  Cl  Cl5  1  0.54966742  0.23637764  0.13090175  1
  Cl  Cl6  1  0.07962922  0.84820877  0.53069400  1
  Cl  Cl7  1  0.07741586  0.34938487  0.52561431  1
  Cl  Cl8  1  0.58398218  0.37064995  0.65833191  1
  Cl  Cl9  1  0.61338271  0.74835700  0.11927310  1
  Cl  Cl10  1  0.58201505  0.89879211  0.64541648  1
  Cl  Cl11  1  0.04993838  0.98370155  0.04061325  1
