# generated using pymatgen
data_CaCeO2
_symmetry_space_group_name_H-M   'P 1'
_cell_length_a   4.94252039
_cell_length_b   4.94205639
_cell_length_c   6.05946717
_cell_angle_alpha   114.02973781
_cell_angle_beta   114.01695980
_cell_angle_gamma   90.08889336
_symmetry_Int_Tables_number   1
_chemical_formula_structural   CaCeO2
_chemical_formula_sum   'Ca2 Ce2 O4'
_cell_volume   120.97104553
_cell_formula_units_Z   2
loop_
 _symmetry_equiv_pos_site_id
 _symmetry_equiv_pos_as_xyz
  1  'x, y, z'
loop_
 _atom_site_type_symbol
 _atom_site_label
 _atom_site_symmetry_multiplicity
 _atom_site_fract_x
 _atom_site_fract_y
 _atom_site_fract_z
 _atom_site_occupancy
  Ca  Ca0  1  0.45784548  0.06678001  0.47138971  1
  Ca  Ca1  1  0.20812566  0.31671054  0.97151072  1
  Ce  Ce2  1  0.70846518  0.81662566  0.97163111  1
  Ce  Ce3  1  0.95809291  0.56683342  0.47151807  1
  O  O4  1  0.96175433  0.07065767  0.47935846  1
  O  O5  1  0.70406179  0.31273067  -0.03618146  1
  O  O6  1  0.45468452  0.56321567  0.46437766  1
  O  O7  1  0.21192278  0.82036713  0.97850853  1
