# generated using pymatgen
data_CaPdO2
_symmetry_space_group_name_H-M   'P 1'
_cell_length_a   3.26469043
_cell_length_b   4.00498363
_cell_length_c   4.01149859
_cell_angle_alpha   89.99141251
_cell_angle_beta   89.25052742
_cell_angle_gamma   89.19335595
_symmetry_Int_Tables_number   1
_chemical_formula_structural   CaPdO2
_chemical_formula_sum   'Ca1 Pd1 O2'
_cell_volume   52.44078660
_cell_formula_units_Z   1
loop_
 _symmetry_equiv_pos_site_id
 _symmetry_equiv_pos_as_xyz
  1  'x, y, z'
loop_
 _atom_site_type_symbol
 _atom_site_label
 _atom_site_symmetry_multiplicity
 _atom_site_fract_x
 _atom_site_fract_y
 _atom_site_fract_z
 _atom_site_occupancy
  Ca  Ca0  1  0.47960030  0.95901926  0.79271086  1
  Pd  Pd1  1  -0.06176915  0.46178035  0.29534951  1
  O  O2  1  0.03307954  0.46717674  0.79483786  1
  O  O3  1  0.03646183  0.96120429  0.29989308  1
