# generated using pymatgen
data_CdAuO2
_symmetry_space_group_name_H-M   'P 1'
_cell_length_a   3.79659595
_cell_length_b   4.06991992
_cell_length_c   8.73652237
_cell_angle_alpha   92.62855721
_cell_angle_beta   87.03130860
_cell_angle_gamma   112.14811344
_symmetry_Int_Tables_number   1
_chemical_formula_structural   CdAuO2
_chemical_formula_sum   'Cd2 Au2 O4'
_cell_volume   124.81595112
_cell_formula_units_Z   2
loop_
 _symmetry_equiv_pos_site_id
 _symmetry_equiv_pos_as_xyz
  1  'x, y, z'
loop_
 _atom_site_type_symbol
 _atom_site_label
 _atom_site_symmetry_multiplicity
 _atom_site_fract_x
 _atom_site_fract_y
 _atom_site_fract_z
 _atom_site_occupancy
  Cd  Cd0  1  0.78758688  0.31639148  0.51823452  1
  Cd  Cd1  1  0.08777924  0.96233116  0.79749638  1
  Au  Au2  1  0.72579214  0.35746746  0.03340317  1
  Au  Au3  1  0.15240486  0.92006226  0.28169277  1
  O  O4  1  0.12428919  0.95030744  0.52597069  1
  O  O5  1  0.21857792  0.86184341  0.04335537  1
  O  O6  1  0.75032913  0.32889814  0.78881150  1
  O  O7  1  0.66076213  0.41494708  0.27191487  1
