# generated using pymatgen
data_CdGa3
_symmetry_space_group_name_H-M   'P 1'
_cell_length_a   4.28631698
_cell_length_b   4.34921626
_cell_length_c   5.85799000
_cell_angle_alpha   60.78977676
_cell_angle_beta   62.31561560
_cell_angle_gamma   69.98995577
_symmetry_Int_Tables_number   1
_chemical_formula_structural   CdGa3
_chemical_formula_sum   'Cd1 Ga3'
_cell_volume   83.45928235
_cell_formula_units_Z   1
loop_
 _symmetry_equiv_pos_site_id
 _symmetry_equiv_pos_as_xyz
  1  'x, y, z'
loop_
 _atom_site_type_symbol
 _atom_site_label
 _atom_site_symmetry_multiplicity
 _atom_site_fract_x
 _atom_site_fract_y
 _atom_site_fract_z
 _atom_site_occupancy
  Cd  Cd0  1  0.15118556  0.47318034  0.31993301  1
  Ga  Ga1  1  0.89935341  0.22539676  0.03821944  1
  Ga  Ga2  1  0.65042633  0.97235173  0.81733390  1
  Ga  Ga3  1  0.40134693  0.71952075  0.59804562  1
