# generated using pymatgen
data_CdGa
_symmetry_space_group_name_H-M   'P 1'
_cell_length_a   3.09266887
_cell_length_b   3.97303339
_cell_length_c   3.50225211
_cell_angle_alpha   89.81342508
_cell_angle_beta   90.32331859
_cell_angle_gamma   91.41606391
_symmetry_Int_Tables_number   1
_chemical_formula_structural   CdGa
_chemical_formula_sum   'Cd1 Ga1'
_cell_volume   43.01910441
_cell_formula_units_Z   1
loop_
 _symmetry_equiv_pos_site_id
 _symmetry_equiv_pos_as_xyz
  1  'x, y, z'
loop_
 _atom_site_type_symbol
 _atom_site_label
 _atom_site_symmetry_multiplicity
 _atom_site_fract_x
 _atom_site_fract_y
 _atom_site_fract_z
 _atom_site_occupancy
  Cd  Cd0  1  0.02682448  0.47182377  0.88131481  1
  Ga  Ga1  1  0.52590891  0.97154842  0.38194323  1
