# generated using pymatgen
data_CdInF3
_symmetry_space_group_name_H-M   'P 1'
_cell_length_a   4.12450687
_cell_length_b   4.21873266
_cell_length_c   5.19675906
_cell_angle_alpha   88.22419386
_cell_angle_beta   97.15662199
_cell_angle_gamma   90.69131696
_symmetry_Int_Tables_number   1
_chemical_formula_structural   CdInF3
_chemical_formula_sum   'Cd1 In1 F3'
_cell_volume   89.67397547
_cell_formula_units_Z   1
loop_
 _symmetry_equiv_pos_site_id
 _symmetry_equiv_pos_as_xyz
  1  'x, y, z'
loop_
 _atom_site_type_symbol
 _atom_site_label
 _atom_site_symmetry_multiplicity
 _atom_site_fract_x
 _atom_site_fract_y
 _atom_site_fract_z
 _atom_site_occupancy
  Cd  Cd0  1  0.35469122  0.53540647  0.78366137  1
  In  In1  1  0.74436824  0.01571742  0.29565876  1
  F  F2  1  0.34785338  0.04921474  0.62909212  1
  F  F3  1  0.82872376  0.57283099  0.62017460  1
  F  F4  1  0.29769437  0.61270638  0.18527393  1
