# generated using pymatgen
data_CdPd2F7
_symmetry_space_group_name_H-M   'P 1'
_cell_length_a   4.34677265
_cell_length_b   4.67362547
_cell_length_c   7.66162724
_cell_angle_alpha   91.40712228
_cell_angle_beta   94.28971864
_cell_angle_gamma   110.13304738
_symmetry_Int_Tables_number   1
_chemical_formula_structural   CdPd2F7
_chemical_formula_sum   'Cd1 Pd2 F7'
_cell_volume   145.51682577
_cell_formula_units_Z   1
loop_
 _symmetry_equiv_pos_site_id
 _symmetry_equiv_pos_as_xyz
  1  'x, y, z'
loop_
 _atom_site_type_symbol
 _atom_site_label
 _atom_site_symmetry_multiplicity
 _atom_site_fract_x
 _atom_site_fract_y
 _atom_site_fract_z
 _atom_site_occupancy
  Cd  Cd0  1  0.50027145  0.60433729  0.52722387  1
  Pd  Pd1  1  0.38793613  0.10781652  0.15895546  1
  Pd  Pd2  1  0.94519804  0.31587093  0.86801310  1
  F  F3  1  -0.01051087  0.47372222  0.62525606  1
  F  F4  1  0.44261491  0.30613850  0.87329372  1
  F  F5  1  0.15523866  0.72216809  0.98844138  1
  F  F6  1  0.59868493  0.55908824  0.26128217  1
  F  F7  1  0.36034221  0.02740372  0.43167587  1
  F  F8  1  0.89630452  0.15207910  0.10932133  1
  F  F9  1  0.73674910  0.89859969  0.75684132  1
