# generated using pymatgen
data_Ce3MgS4Cl
_symmetry_space_group_name_H-M   'P 1'
_cell_length_a   5.63332170
_cell_length_b   6.93382098
_cell_length_c   6.99466203
_cell_angle_alpha   81.58600130
_cell_angle_beta   66.30446340
_cell_angle_gamma   66.01554017
_symmetry_Int_Tables_number   1
_chemical_formula_structural   Ce3MgS4Cl
_chemical_formula_sum   'Ce3 Mg1 S4 Cl1'
_cell_volume   228.53188013
_cell_formula_units_Z   1
loop_
 _symmetry_equiv_pos_site_id
 _symmetry_equiv_pos_as_xyz
  1  'x, y, z'
loop_
 _atom_site_type_symbol
 _atom_site_label
 _atom_site_symmetry_multiplicity
 _atom_site_fract_x
 _atom_site_fract_y
 _atom_site_fract_z
 _atom_site_occupancy
  Ce  Ce0  1  0.86501236  0.43143386  0.35458821  1
  Ce  Ce1  1  0.45455063  0.64212787  0.96375241  1
  Ce  Ce2  1  0.06763662  0.81111906  0.56714602  1
  Mg  Mg3  1  0.64182176  0.01827465  0.21117231  1
  S  S4  1  0.38352392  0.40637894  0.34312748  1
  S  S5  1  0.92778682  0.67334371  0.98592538  1
  S  S6  1  0.15334689  0.02564991  0.18043148  1
  S  S7  1  0.55906046  0.83406873  0.56133079  1
  Cl  Cl8  1  0.76097023  0.22758855  0.76627855  1
