# generated using pymatgen
data_CeZrAlCo2Cu
_symmetry_space_group_name_H-M   'P 1'
_cell_length_a   5.01611663
_cell_length_b   5.14946701
_cell_length_c   5.29856121
_cell_angle_alpha   59.12950599
_cell_angle_beta   58.02010244
_cell_angle_gamma   58.78426969
_symmetry_Int_Tables_number   1
_chemical_formula_structural   CeZrAlCo2Cu
_chemical_formula_sum   'Ce1 Zr1 Al1 Co2 Cu1'
_cell_volume   93.75987811
_cell_formula_units_Z   1
loop_
 _symmetry_equiv_pos_site_id
 _symmetry_equiv_pos_as_xyz
  1  'x, y, z'
loop_
 _atom_site_type_symbol
 _atom_site_label
 _atom_site_symmetry_multiplicity
 _atom_site_fract_x
 _atom_site_fract_y
 _atom_site_fract_z
 _atom_site_occupancy
  Ce  Ce0  1  0.20116994  0.27432592  0.90248862  1
  Zr  Zr1  1  0.90668635  0.01292709  0.68056818  1
  Al  Al2  1  0.03176045  0.64833150  0.30083288  1
  Co  Co3  1  0.53903682  0.65141509  0.29284594  1
  Co  Co4  1  0.53796285  0.65208120  0.79774924  1
  Cu  Cu5  1  0.54276552  0.14801089  0.29511669  1
