# generated using pymatgen
data_CrReB2
_symmetry_space_group_name_H-M   'P 1'
_cell_length_a   3.26780004
_cell_length_b   3.26909554
_cell_length_c   4.31334669
_cell_angle_alpha   89.98908661
_cell_angle_beta   90.00038830
_cell_angle_gamma   120.02698332
_symmetry_Int_Tables_number   1
_chemical_formula_structural   CrReB2
_chemical_formula_sum   'Cr1 Re1 B2'
_cell_volume   39.89421507
_cell_formula_units_Z   1
loop_
 _symmetry_equiv_pos_site_id
 _symmetry_equiv_pos_as_xyz
  1  'x, y, z'
loop_
 _atom_site_type_symbol
 _atom_site_label
 _atom_site_symmetry_multiplicity
 _atom_site_fract_x
 _atom_site_fract_y
 _atom_site_fract_z
 _atom_site_occupancy
  Cr  Cr0  1  0.12394592  0.37862592  0.33970517  1
  Re  Re1  1  0.45717488  0.04501446  0.83972829  1
  B  B2  1  0.79047376  0.71145644  0.55766888  1
  B  B3  1  0.79037198  0.71131971  0.12140063  1
