# generated using pymatgen
data_Cs2BiSbSe5I
_symmetry_space_group_name_H-M   'P 1'
_cell_length_a   6.43215952
_cell_length_b   8.06293558
_cell_length_c   8.19600871
_cell_angle_alpha   74.24352670
_cell_angle_beta   88.50672294
_cell_angle_gamma   90.67919699
_symmetry_Int_Tables_number   1
_chemical_formula_structural   Cs2BiSbSe5I
_chemical_formula_sum   'Cs2 Bi1 Sb1 Se5 I1'
_cell_volume   408.87212627
_cell_formula_units_Z   1
loop_
 _symmetry_equiv_pos_site_id
 _symmetry_equiv_pos_as_xyz
  1  'x, y, z'
loop_
 _atom_site_type_symbol
 _atom_site_label
 _atom_site_symmetry_multiplicity
 _atom_site_fract_x
 _atom_site_fract_y
 _atom_site_fract_z
 _atom_site_occupancy
  Cs  Cs0  1  0.56324599  0.79621869  0.71349308  1
  Cs  Cs1  1  0.56439656  0.29176173  0.21345250  1
  Bi  Bi2  1  -0.00538333  0.76913725  0.25875207  1
  Sb  Sb3  1  0.06441136  0.21371610  0.65984068  1
  Se  Se4  1  0.10336894  0.02714399  0.45378607  1
  Se  Se5  1  0.42992348  0.31127617  0.69232085  1
  Se  Se6  1  -0.17079820  0.47587913  0.52031980  1
  Se  Se7  1  -0.14348001  0.04679048  0.96165098  1
  Se  Se8  1  0.59981827  0.83749492  0.17795321  1
  I  I9  1  0.08330134  0.55502610  0.01396457  1
