# generated using pymatgen
data_Cs2CuS2
_symmetry_space_group_name_H-M   'P 1'
_cell_length_a   6.78698760
_cell_length_b   7.06316089
_cell_length_c   8.43623796
_cell_angle_alpha   60.01527380
_cell_angle_beta   90.50108910
_cell_angle_gamma   98.79078074
_symmetry_Int_Tables_number   1
_chemical_formula_structural   Cs2CuS2
_chemical_formula_sum   'Cs4 Cu2 S4'
_cell_volume   345.08867221
_cell_formula_units_Z   2
loop_
 _symmetry_equiv_pos_site_id
 _symmetry_equiv_pos_as_xyz
  1  'x, y, z'
loop_
 _atom_site_type_symbol
 _atom_site_label
 _atom_site_symmetry_multiplicity
 _atom_site_fract_x
 _atom_site_fract_y
 _atom_site_fract_z
 _atom_site_occupancy
  Cs  Cs0  1  0.14296439  0.12913825  0.51576597  1
  Cs  Cs1  1  0.58713270  0.71178647  0.81019199  1
  Cs  Cs2  1  0.73627806  0.59643213  0.38086605  1
  Cs  Cs3  1  0.29269423  0.01394227  0.08641290  1
  Cu  Cu4  1  0.83458571  0.26580801  0.09479406  1
  Cu  Cu5  1  0.04598817  0.46012538  0.80152290  1
  S  S6  1  0.78761063  0.18585215  0.86943190  1
  S  S7  1  0.09253212  0.53984589  0.02726082  1
  S  S8  1  0.22838572  0.61117442  0.54547511  1
  S  S9  1  0.65176057  0.11475007  0.35059987  1
