# generated using pymatgen
data_Cs2LiCeI6
_symmetry_space_group_name_H-M   'P 1'
_cell_length_a   8.37203621
_cell_length_b   7.60997991
_cell_length_c   7.46949286
_cell_angle_alpha   75.48688766
_cell_angle_beta   90.98143579
_cell_angle_gamma   85.49705405
_symmetry_Int_Tables_number   1
_chemical_formula_structural   Cs2LiCeI6
_chemical_formula_sum   'Cs2 Li1 Ce1 I6'
_cell_volume   458.94747286
_cell_formula_units_Z   1
loop_
 _symmetry_equiv_pos_site_id
 _symmetry_equiv_pos_as_xyz
  1  'x, y, z'
loop_
 _atom_site_type_symbol
 _atom_site_label
 _atom_site_symmetry_multiplicity
 _atom_site_fract_x
 _atom_site_fract_y
 _atom_site_fract_z
 _atom_site_occupancy
  Cs  Cs0  1  0.36487565  0.52228963  0.40174018  1
  Cs  Cs1  1  0.36949075  0.02583131  0.90461767  1
  Li  Li2  1  0.86637593  0.77248624  0.65622171  1
  Ce  Ce3  1  0.86667719  0.27232594  0.15576724  1
  I  I4  1  0.60390280  0.54916947  0.89664691  1
  I  I5  1  0.60528686  0.04848921  0.39628144  1
  I  I6  1  0.12775798  0.49688634  0.91556212  1
  I  I7  1  0.86486603  0.52985075  0.41543175  1
  I  I8  1  0.12954140  0.99615251  0.41474775  1
  I  I9  1  0.86733270  0.01454169  0.89638136  1
