# generated using pymatgen
data_Cs2SbTe
_symmetry_space_group_name_H-M   'P 1'
_cell_length_a   7.09716453
_cell_length_b   7.10061338
_cell_length_c   7.09546652
_cell_angle_alpha   43.70215212
_cell_angle_beta   58.77658080
_cell_angle_gamma   76.03321817
_symmetry_Int_Tables_number   1
_chemical_formula_structural   Cs2SbTe
_chemical_formula_sum   'Cs2 Sb1 Te1'
_cell_volume   205.80940533
_cell_formula_units_Z   1
loop_
 _symmetry_equiv_pos_site_id
 _symmetry_equiv_pos_as_xyz
  1  'x, y, z'
loop_
 _atom_site_type_symbol
 _atom_site_label
 _atom_site_symmetry_multiplicity
 _atom_site_fract_x
 _atom_site_fract_y
 _atom_site_fract_z
 _atom_site_occupancy
  Cs  Cs0  1  0.65778634  0.17368670  0.18177794  1
  Cs  Cs1  1  0.26325779  0.78118380  0.18342085  1
  Sb  Sb2  1  -0.02306393  0.97788294  0.66721889  1
  Te  Te3  1  0.18057264  0.47785349  0.96342371  1
