# generated using pymatgen
data_Cs2TmPbF10
_symmetry_space_group_name_H-M   'P 1'
_cell_length_a   5.84011355
_cell_length_b   5.80446543
_cell_length_c   7.17046089
_cell_angle_alpha   91.82465499
_cell_angle_beta   88.83566072
_cell_angle_gamma   101.14133303
_symmetry_Int_Tables_number   1
_chemical_formula_structural   Cs2TmPbF10
_chemical_formula_sum   'Cs2 Tm1 Pb1 F10'
_cell_volume   238.34276234
_cell_formula_units_Z   1
loop_
 _symmetry_equiv_pos_site_id
 _symmetry_equiv_pos_as_xyz
  1  'x, y, z'
loop_
 _atom_site_type_symbol
 _atom_site_label
 _atom_site_symmetry_multiplicity
 _atom_site_fract_x
 _atom_site_fract_y
 _atom_site_fract_z
 _atom_site_occupancy
  Cs  Cs0  1  -0.01036980  0.82008733  0.11214963  1
  Cs  Cs1  1  0.50317241  0.32235593  0.10422467  1
  Tm  Tm2  1  0.03702924  0.28341369  0.65800127  1
  Pb  Pb3  1  0.45633514  0.85906230  0.55546119  1
  F  F4  1  0.00165115  0.31907487  0.96279105  1
  F  F5  1  0.76023635  0.15012044  0.45186104  1
  F  F6  1  0.15725013  0.57205652  0.45541037  1
  F  F7  1  0.24145540  0.10142010  0.43976759  1
  F  F8  1  0.69609608  0.62135413  0.49541103  1
  F  F9  1  0.25534427  0.03677940  0.77149131  1
  F  F10  1  0.71649090  -0.00690304  0.76758820  1
  F  F11  1  0.33518166  0.58413659  0.76266646  1
  F  F12  1  0.80560061  0.51868237  0.75427771  1
  F  F13  1  0.48959015  0.82110611  0.25333085  1
