# generated using pymatgen
data_Cs3AsI2ClO
_symmetry_space_group_name_H-M   'P 1'
_cell_length_a   5.67975589
_cell_length_b   5.57653608
_cell_length_c   10.65969719
_cell_angle_alpha   89.19583791
_cell_angle_beta   101.34773241
_cell_angle_gamma   89.84115943
_symmetry_Int_Tables_number   1
_chemical_formula_structural   Cs3AsI2ClO
_chemical_formula_sum   'Cs3 As1 I2 Cl1 O1'
_cell_volume   330.99031631
_cell_formula_units_Z   1
loop_
 _symmetry_equiv_pos_site_id
 _symmetry_equiv_pos_as_xyz
  1  'x, y, z'
loop_
 _atom_site_type_symbol
 _atom_site_label
 _atom_site_symmetry_multiplicity
 _atom_site_fract_x
 _atom_site_fract_y
 _atom_site_fract_z
 _atom_site_occupancy
  Cs  Cs0  1  0.51278698  0.15231228  0.77047453  1
  Cs  Cs1  1  0.03076903  0.65342072  0.82782755  1
  Cs  Cs2  1  0.14528134  0.14824300  0.13985957  1
  As  As3  1  0.72735082  0.68867085  0.44379523  1
  I  I4  1  0.61720830  0.64775215  0.06242988  1
  I  I5  1  0.24566939  0.65892502  0.49726599  1
  Cl  Cl6  1  0.70743905  0.08905040  0.40453156  1
  O  O7  1  0.04263698  0.15289042  0.85263984  1
