# generated using pymatgen
data_Cs3SbO4
_symmetry_space_group_name_H-M   'P 1'
_cell_length_a   6.62831108
_cell_length_b   6.81014360
_cell_length_c   6.63133136
_cell_angle_alpha   96.82772204
_cell_angle_beta   65.49238523
_cell_angle_gamma   62.93366859
_symmetry_Int_Tables_number   1
_chemical_formula_structural   Cs3SbO4
_chemical_formula_sum   'Cs3 Sb1 O4'
_cell_volume   224.37716623
_cell_formula_units_Z   1
loop_
 _symmetry_equiv_pos_site_id
 _symmetry_equiv_pos_as_xyz
  1  'x, y, z'
loop_
 _atom_site_type_symbol
 _atom_site_label
 _atom_site_symmetry_multiplicity
 _atom_site_fract_x
 _atom_site_fract_y
 _atom_site_fract_z
 _atom_site_occupancy
  Cs  Cs0  1  0.27435725  0.24394877  0.16591023  1
  Cs  Cs1  1  0.25099053  0.75658921  0.66536015  1
  Cs  Cs2  1  0.80128796  0.49624027  0.87610512  1
  Sb  Sb3  1  0.73129133  -0.00478752  0.44702122  1
  O  O4  1  -0.01515186  0.05969115  0.44436787  1
  O  O5  1  0.78620252  -0.08667488  0.13398112  1
  O  O6  1  0.77166041  0.73765609  0.55509212  1
  O  O7  1  0.37255288  0.26876089  0.66528515  1
