# generated using pymatgen
data_Cs5AsCl8
_symmetry_space_group_name_H-M   'P 1'
_cell_length_a   7.43229806
_cell_length_b   9.19751650
_cell_length_c   9.36034276
_cell_angle_alpha   113.08388465
_cell_angle_beta   103.95940457
_cell_angle_gamma   98.46919898
_symmetry_Int_Tables_number   1
_chemical_formula_structural   Cs5AsCl8
_chemical_formula_sum   'Cs5 As1 Cl8'
_cell_volume   549.88198998
_cell_formula_units_Z   1
loop_
 _symmetry_equiv_pos_site_id
 _symmetry_equiv_pos_as_xyz
  1  'x, y, z'
loop_
 _atom_site_type_symbol
 _atom_site_label
 _atom_site_symmetry_multiplicity
 _atom_site_fract_x
 _atom_site_fract_y
 _atom_site_fract_z
 _atom_site_occupancy
  Cs  Cs0  1  0.07436347  0.98115207  0.19271705  1
  Cs  Cs1  1  0.51106285  0.00086529  0.92653461  1
  Cs  Cs2  1  0.29409430  0.49084450  0.05913266  1
  Cs  Cs3  1  0.76160292  0.24547615  0.59991721  1
  Cs  Cs4  1  0.82442484  0.73704120  0.52042568  1
  As  As5  1  0.29254638  0.49113547  0.55974227  1
  Cl  Cl6  1  0.26378492  0.24566999  0.62463383  1
  Cl  Cl7  1  0.14294372  0.63336940  0.77788734  1
  Cl  Cl8  1  0.96394321  0.09554247  0.87749625  1
  Cl  Cl9  1  0.96407668  0.36430145  0.34353798  1
  Cl  Cl10  1  0.62078400  0.61785901  0.77636714  1
  Cl  Cl11  1  0.62130340  0.88659892  0.24186498  1
  Cl  Cl12  1  0.32170498  0.73615742  0.49498579  1
  Cl  Cl13  1  0.44182658  0.34887597  0.34187812  1
