# generated using pymatgen
data_CsBaCaPrTe3SeBr
_symmetry_space_group_name_H-M   'P 1'
_cell_length_a   5.71288272
_cell_length_b   5.47316781
_cell_length_c   12.42022853
_cell_angle_alpha   90.06841820
_cell_angle_beta   90.12727986
_cell_angle_gamma   92.45565037
_symmetry_Int_Tables_number   1
_chemical_formula_structural   CsBaCaPrTe3SeBr
_chemical_formula_sum   'Cs1 Ba1 Ca1 Pr1 Te3 Se1 Br1'
_cell_volume   387.99240444
_cell_formula_units_Z   1
loop_
 _symmetry_equiv_pos_site_id
 _symmetry_equiv_pos_as_xyz
  1  'x, y, z'
loop_
 _atom_site_type_symbol
 _atom_site_label
 _atom_site_symmetry_multiplicity
 _atom_site_fract_x
 _atom_site_fract_y
 _atom_site_fract_z
 _atom_site_occupancy
  Cs  Cs0  1  0.98164938  0.11681498  0.45416258  1
  Ba  Ba1  1  0.98901434  0.11352439  0.88685960  1
  Ca  Ca2  1  0.43091157  0.68937757  0.17824871  1
  Pr  Pr3  1  0.48548977  0.61581922  0.66586812  1
  Te  Te4  1  0.03623556  0.05595307  0.15562672  1
  Te  Te5  1  0.48618637  0.61095867  0.42167190  1
  Te  Te6  1  0.48946142  0.59768735  0.93618730  1
  Se  Se7  1  0.48603410  0.11575847  0.73276963  1
  Br  Br8  1  0.98582079  0.61641297  0.70100209  1
