# generated using pymatgen
data_CsCaMgSiO5
_symmetry_space_group_name_H-M   'P 1'
_cell_length_a   3.11704649
_cell_length_b   6.18196740
_cell_length_c   9.08213171
_cell_angle_alpha   120.10002477
_cell_angle_beta   80.92911552
_cell_angle_gamma   119.29944489
_symmetry_Int_Tables_number   1
_chemical_formula_structural   CsCaMgSiO5
_chemical_formula_sum   'Cs1 Ca1 Mg1 Si1 O5'
_cell_volume   131.14277339
_cell_formula_units_Z   1
loop_
 _symmetry_equiv_pos_site_id
 _symmetry_equiv_pos_as_xyz
  1  'x, y, z'
loop_
 _atom_site_type_symbol
 _atom_site_label
 _atom_site_symmetry_multiplicity
 _atom_site_fract_x
 _atom_site_fract_y
 _atom_site_fract_z
 _atom_site_occupancy
  Cs  Cs0  1  0.84197071  0.17272820  0.34952916  1
  Ca  Ca1  1  0.50093506  0.57585208  0.83671584  1
  Mg  Mg2  1  0.92487189  0.88378779  0.60493113  1
  Si  Si3  1  0.78982404  0.51021104  0.13888002  1
  O  O4  1  0.14930363  0.33391303  0.07244581  1
  O  O5  1  0.83935735  0.66263540  0.34565537  1
  O  O6  1  0.03246097  0.71554616  0.05395302  1
  O  O7  1  0.68145679  0.18089076  0.68242814  1
  O  O8  1  0.22517492  0.72322684  0.68821703  1
