# generated using pymatgen
data_CsCeTi3S6O
_symmetry_space_group_name_H-M   'P 1'
_cell_length_a   5.56049483
_cell_length_b   6.56123550
_cell_length_c   8.05236354
_cell_angle_alpha   80.74724693
_cell_angle_beta   88.32591829
_cell_angle_gamma   86.42672490
_symmetry_Int_Tables_number   1
_chemical_formula_structural   CsCeTi3S6O
_chemical_formula_sum   'Cs1 Ce1 Ti3 S6 O1'
_cell_volume   289.33902747
_cell_formula_units_Z   1
loop_
 _symmetry_equiv_pos_site_id
 _symmetry_equiv_pos_as_xyz
  1  'x, y, z'
loop_
 _atom_site_type_symbol
 _atom_site_label
 _atom_site_symmetry_multiplicity
 _atom_site_fract_x
 _atom_site_fract_y
 _atom_site_fract_z
 _atom_site_occupancy
  Cs  Cs0  1  0.16816621  0.56984478  0.50991720  1
  Ce  Ce1  1  0.59939502  0.81932607  0.92041385  1
  Ti  Ti2  1  0.75293649  0.11551353  0.31960391  1
  Ti  Ti3  1  0.41276128  0.30771803  0.02042923  1
  Ti  Ti4  1  0.92242624  0.30398402  0.00902237  1
  S  S5  1  0.64734694  0.46489207  0.22592290  1
  S  S6  1  0.14105165  0.61297749  -0.00644132  1
  S  S7  1  0.15464087  0.12857980  0.27500221  1
  S  S8  1  0.66328148  0.93582601  0.57144259  1
  S  S9  1  0.66026410  0.43489178  0.78517710  1
  S  S10  1  0.19447743  0.11275512  0.85180707  1
  O  O11  1  0.67485223  0.06466367  0.09781392  1
