# generated using pymatgen
data_CsKCuAg2TeO6
_symmetry_space_group_name_H-M   'P 1'
_cell_length_a   6.08209406
_cell_length_b   7.22996064
_cell_length_c   6.70421405
_cell_angle_alpha   93.87280486
_cell_angle_beta   70.88073220
_cell_angle_gamma   108.65625280
_symmetry_Int_Tables_number   1
_chemical_formula_structural   CsKCuAg2TeO6
_chemical_formula_sum   'Cs1 K1 Cu1 Ag2 Te1 O6'
_cell_volume   263.67999681
_cell_formula_units_Z   1
loop_
 _symmetry_equiv_pos_site_id
 _symmetry_equiv_pos_as_xyz
  1  'x, y, z'
loop_
 _atom_site_type_symbol
 _atom_site_label
 _atom_site_symmetry_multiplicity
 _atom_site_fract_x
 _atom_site_fract_y
 _atom_site_fract_z
 _atom_site_occupancy
  Cs  Cs0  1  0.60458298  0.47671898  -0.03690164  1
  K  K1  1  0.05487936  0.79897622  0.41142197  1
  Cu  Cu2  1  0.34104305  0.41776398  0.52530605  1
  Ag  Ag3  1  0.84756567  0.27945651  0.33816154  1
  Ag  Ag4  1  0.39065262  0.89915332  0.86498873  1
  Te  Te5  1  0.90841054  0.06637875  0.96980328  1
  O  O6  1  0.16562307  0.46007989  0.37781745  1
  O  O7  1  0.60067056  0.06126806  0.18465336  1
  O  O8  1  0.15490131  0.28940201  0.79541184  1
  O  O9  1  0.76845648  0.94362543  0.75908323  1
  O  O10  1  0.01537462  0.85186633  0.01153542  1
  O  O11  1  0.65149639  0.47775345  0.51017213  1
