# generated using pymatgen
data_CsLiMgF5
_symmetry_space_group_name_H-M   'P 1'
_cell_length_a   3.95067674
_cell_length_b   5.25627936
_cell_length_c   6.40688604
_cell_angle_alpha   112.26478224
_cell_angle_beta   93.41132777
_cell_angle_gamma   89.03287420
_symmetry_Int_Tables_number   1
_chemical_formula_structural   CsLiMgF5
_chemical_formula_sum   'Cs1 Li1 Mg1 F5'
_cell_volume   122.90459476
_cell_formula_units_Z   1
loop_
 _symmetry_equiv_pos_site_id
 _symmetry_equiv_pos_as_xyz
  1  'x, y, z'
loop_
 _atom_site_type_symbol
 _atom_site_label
 _atom_site_symmetry_multiplicity
 _atom_site_fract_x
 _atom_site_fract_y
 _atom_site_fract_z
 _atom_site_occupancy
  Cs  Cs0  1  0.65057066  0.93877630  0.15823217  1
  Li  Li1  1  0.16900994  0.62893210  0.47249935  1
  Mg  Mg2  1  0.15348895  0.29546853  0.80752064  1
  F  F3  1  0.17068404  0.41464865  0.14067792  1
  F  F4  1  0.14025586  0.64663237  0.77494544  1
  F  F5  1  0.16007335  0.00687480  0.51434904  1
  F  F6  1  0.66365683  0.54500712  0.45076456  1
  F  F7  1  0.65906526  0.25398677  0.83228915  1
