# generated using pymatgen
data_CsMgZrTlSCl5
_symmetry_space_group_name_H-M   'P 1'
_cell_length_a   6.09721441
_cell_length_b   6.75648769
_cell_length_c   7.73966381
_cell_angle_alpha   89.45907256
_cell_angle_beta   86.01710770
_cell_angle_gamma   92.86081743
_symmetry_Int_Tables_number   1
_chemical_formula_structural   CsMgZrTlSCl5
_chemical_formula_sum   'Cs1 Mg1 Zr1 Tl1 S1 Cl5'
_cell_volume   317.64816876
_cell_formula_units_Z   1
loop_
 _symmetry_equiv_pos_site_id
 _symmetry_equiv_pos_as_xyz
  1  'x, y, z'
loop_
 _atom_site_type_symbol
 _atom_site_label
 _atom_site_symmetry_multiplicity
 _atom_site_fract_x
 _atom_site_fract_y
 _atom_site_fract_z
 _atom_site_occupancy
  Cs  Cs0  1  0.23020818  0.78195433  0.47509626  1
  Mg  Mg1  1  0.55948275  0.53707976  0.99677542  1
  Zr  Zr2  1  0.16421474  0.17653496  0.96225255  1
  Tl  Tl3  1  0.73700257  0.31339195  0.42502378  1
  S  S4  1  0.26142170  0.35284620  0.20726944  1
  Cl  Cl5  1  0.25912679  0.83218473  0.97266826  1
  Cl  Cl6  1  0.73400571  0.70008734  0.22650127  1
  Cl  Cl7  1  0.75856337  0.20450338  0.98229703  1
  Cl  Cl8  1  0.20758558  0.27091204  0.65360418  1
  Cl  Cl9  1  0.70306178  0.64529498  0.71349275  1
