# generated using pymatgen
data_CsNaCl2
_symmetry_space_group_name_H-M   'P 1'
_cell_length_a   4.41620836
_cell_length_b   4.42286808
_cell_length_c   7.98976873
_cell_angle_alpha   73.64999562
_cell_angle_beta   73.57024487
_cell_angle_gamma   61.09411550
_symmetry_Int_Tables_number   1
_chemical_formula_structural   CsNaCl2
_chemical_formula_sum   'Cs1 Na1 Cl2'
_cell_volume   129.07482254
_cell_formula_units_Z   1
loop_
 _symmetry_equiv_pos_site_id
 _symmetry_equiv_pos_as_xyz
  1  'x, y, z'
loop_
 _atom_site_type_symbol
 _atom_site_label
 _atom_site_symmetry_multiplicity
 _atom_site_fract_x
 _atom_site_fract_y
 _atom_site_fract_z
 _atom_site_occupancy
  Cs  Cs0  1  0.07739298  0.03024304  0.56820098  1
  Na  Na1  1  0.57851164  0.52922052  0.06807966  1
  Cl  Cl2  1  0.31401056  0.26865668  0.86946633  1
  Cl  Cl3  1  0.84154141  0.79180590  0.26674222  1
