# generated using pymatgen
data_CsRb4TeBr4
_symmetry_space_group_name_H-M   'P 1'
_cell_length_a   7.19673835
_cell_length_b   8.82784898
_cell_length_c   8.86646453
_cell_angle_alpha   80.24373150
_cell_angle_beta   66.17726549
_cell_angle_gamma   65.57256995
_symmetry_Int_Tables_number   1
_chemical_formula_structural   CsRb4TeBr4
_chemical_formula_sum   'Cs1 Rb4 Te1 Br4'
_cell_volume   469.17873902
_cell_formula_units_Z   1
loop_
 _symmetry_equiv_pos_site_id
 _symmetry_equiv_pos_as_xyz
  1  'x, y, z'
loop_
 _atom_site_type_symbol
 _atom_site_label
 _atom_site_symmetry_multiplicity
 _atom_site_fract_x
 _atom_site_fract_y
 _atom_site_fract_z
 _atom_site_occupancy
  Cs  Cs0  1  0.09482734  0.75100844  0.75426562  1
  Rb  Rb1  1  0.88835738  0.37274775  0.54429821  1
  Rb  Rb2  1  0.50917778  0.53962661  0.13535941  1
  Rb  Rb3  1  0.69983447  0.95637969  0.33671072  1
  Rb  Rb4  1  0.30419299  0.16607571  0.91969167  1
  Te  Te5  1  0.20209536  0.96100690  0.32740649  1
  Br  Br6  1  0.40649423  0.34825640  0.53292348  1
  Br  Br7  1  0.79527737  0.16569383  0.93768033  1
  Br  Br8  1  0.59800501  0.75858757  0.74036949  1
  Br  Br9  1  -0.00305190  0.54985652  0.14992225  1
