# generated using pymatgen
data_Dy2Cu2IrAu
_symmetry_space_group_name_H-M   'P 1'
_cell_length_a   4.19645085
_cell_length_b   5.49029206
_cell_length_c   5.39811674
_cell_angle_alpha   89.95908366
_cell_angle_beta   67.26729652
_cell_angle_gamma   89.99109470
_symmetry_Int_Tables_number   1
_chemical_formula_structural   Dy2Cu2IrAu
_chemical_formula_sum   'Dy2 Cu2 Ir1 Au1'
_cell_volume   114.70973471
_cell_formula_units_Z   1
loop_
 _symmetry_equiv_pos_site_id
 _symmetry_equiv_pos_as_xyz
  1  'x, y, z'
loop_
 _atom_site_type_symbol
 _atom_site_label
 _atom_site_symmetry_multiplicity
 _atom_site_fract_x
 _atom_site_fract_y
 _atom_site_fract_z
 _atom_site_occupancy
  Dy  Dy0  1  0.46375982  0.40468285  0.24745319  1
  Dy  Dy1  1  0.87071855  0.90477989  0.43523559  1
  Cu  Cu2  1  0.18254843  0.16230739  0.80924283  1
  Cu  Cu3  1  0.18413061  0.64970845  0.80765458  1
  Ir  Ir4  1  0.76693562  0.40540560  0.64031252  1
  Au  Au5  1  0.57684870  0.90482667  0.02164513  1
