# generated using pymatgen
data_Dy2HoMg
_symmetry_space_group_name_H-M   'P 1'
_cell_length_a   4.88893220
_cell_length_b   4.89034075
_cell_length_c   4.87920715
_cell_angle_alpha   90.07026924
_cell_angle_beta   90.06584240
_cell_angle_gamma   90.21953644
_symmetry_Int_Tables_number   1
_chemical_formula_structural   Dy2HoMg
_chemical_formula_sum   'Dy2 Ho1 Mg1'
_cell_volume   116.65371904
_cell_formula_units_Z   1
loop_
 _symmetry_equiv_pos_site_id
 _symmetry_equiv_pos_as_xyz
  1  'x, y, z'
loop_
 _atom_site_type_symbol
 _atom_site_label
 _atom_site_symmetry_multiplicity
 _atom_site_fract_x
 _atom_site_fract_y
 _atom_site_fract_z
 _atom_site_occupancy
  Dy  Dy0  1  0.73575677  0.51488610  0.96999333  1
  Dy  Dy1  1  0.23653492  0.01507830  0.97000403  1
  Ho  Ho2  1  0.73669797  0.01478363  0.46988390  1
  Mg  Mg3  1  0.23661333  0.51446927  0.47001486  1
