# generated using pymatgen
data_Dy2O3F
_symmetry_space_group_name_H-M   'P 1'
_cell_length_a   3.86406381
_cell_length_b   3.87542356
_cell_length_c   5.34622895
_cell_angle_alpha   90.06120197
_cell_angle_beta   89.92377089
_cell_angle_gamma   91.98220291
_symmetry_Int_Tables_number   1
_chemical_formula_structural   Dy2O3F
_chemical_formula_sum   'Dy2 O3 F1'
_cell_volume   80.01113948
_cell_formula_units_Z   1
loop_
 _symmetry_equiv_pos_site_id
 _symmetry_equiv_pos_as_xyz
  1  'x, y, z'
loop_
 _atom_site_type_symbol
 _atom_site_label
 _atom_site_symmetry_multiplicity
 _atom_site_fract_x
 _atom_site_fract_y
 _atom_site_fract_z
 _atom_site_occupancy
  Dy  Dy0  1  0.46880741  0.10058861  0.92563342  1
  Dy  Dy1  1  0.96936564  0.60072446  0.44910341  1
  O  O2  1  0.46891114  0.60050482  0.68856597  1
  O  O3  1  0.46886662  0.60020467  0.18845040  1
  O  O4  1  0.96955787  0.10105621  0.68685547  1
  F  F5  1  0.96852349  0.09932783  0.18682183  1
