# generated using pymatgen
data_Dy2ZnFe
_symmetry_space_group_name_H-M   'P 1'
_cell_length_a   4.89944090
_cell_length_b   4.90499939
_cell_length_c   4.90279032
_cell_angle_alpha   60.05726438
_cell_angle_beta   60.09001262
_cell_angle_gamma   60.01055554
_symmetry_Int_Tables_number   1
_chemical_formula_structural   Dy2ZnFe
_chemical_formula_sum   'Dy2 Zn1 Fe1'
_cell_volume   83.41246136
_cell_formula_units_Z   1
loop_
 _symmetry_equiv_pos_site_id
 _symmetry_equiv_pos_as_xyz
  1  'x, y, z'
loop_
 _atom_site_type_symbol
 _atom_site_label
 _atom_site_symmetry_multiplicity
 _atom_site_fract_x
 _atom_site_fract_y
 _atom_site_fract_z
 _atom_site_occupancy
  Dy  Dy0  1  0.90471896  0.10984871  0.66424955  1
  Dy  Dy1  1  0.40449531  0.61109102  0.16397945  1
  Zn  Zn2  1  0.15487644  0.36161868  0.91274788  1
  Fe  Fe3  1  0.65382192  0.85799040  0.41730131  1
