# generated using pymatgen
data_DyMgAlPd2
_symmetry_space_group_name_H-M   'P 1'
_cell_length_a   4.40057983
_cell_length_b   5.19491879
_cell_length_c   8.52472570
_cell_angle_alpha   90.08235346
_cell_angle_beta   104.98523025
_cell_angle_gamma   89.99897072
_symmetry_Int_Tables_number   1
_chemical_formula_structural   DyMgAlPd2
_chemical_formula_sum   'Dy2 Mg2 Al2 Pd4'
_cell_volume   188.25319799
_cell_formula_units_Z   2
loop_
 _symmetry_equiv_pos_site_id
 _symmetry_equiv_pos_as_xyz
  1  'x, y, z'
loop_
 _atom_site_type_symbol
 _atom_site_label
 _atom_site_symmetry_multiplicity
 _atom_site_fract_x
 _atom_site_fract_y
 _atom_site_fract_z
 _atom_site_occupancy
  Dy  Dy0  1  0.91503716  0.50414858  0.72934180  1
  Dy  Dy1  1  0.64341658  0.00013059  0.18733589  1
  Mg  Mg2  1  0.11929118  0.49812571  0.13748307  1
  Mg  Mg3  1  0.43932015  0.00447293  0.77953064  1
  Al  Al4  1  0.27965283  0.75282782  0.45847120  1
  Al  Al5  1  0.28009997  0.25289977  0.45907121  1
  Pd  Pd6  1  0.73325669  0.50236787  0.36524254  1
  Pd  Pd7  1  0.82593652  0.00277474  0.55124198  1
  Pd  Pd8  1  0.02842966  0.00137464  0.95730639  1
  Pd  Pd9  1  0.53067927  0.50436400  0.95958375  1
