# generated using pymatgen
data_Er2Cu3Si
_symmetry_space_group_name_H-M   'P 1'
_cell_length_a   5.17982380
_cell_length_b   5.17787620
_cell_length_c   5.18543859
_cell_angle_alpha   60.39987187
_cell_angle_beta   60.36076317
_cell_angle_gamma   60.38227600
_symmetry_Int_Tables_number   1
_chemical_formula_structural   Er2Cu3Si
_chemical_formula_sum   'Er2 Cu3 Si1'
_cell_volume   99.18891502
_cell_formula_units_Z   1
loop_
 _symmetry_equiv_pos_site_id
 _symmetry_equiv_pos_as_xyz
  1  'x, y, z'
loop_
 _atom_site_type_symbol
 _atom_site_label
 _atom_site_symmetry_multiplicity
 _atom_site_fract_x
 _atom_site_fract_y
 _atom_site_fract_z
 _atom_site_occupancy
  Er  Er0  1  0.70169465  0.20057630  0.85678845  1
  Er  Er1  1  0.95342920  0.45243753  0.10978051  1
  Cu  Cu2  1  0.32916602  0.32637259  0.48307439  1
  Cu  Cu3  1  0.32791493  0.82658439  0.98323852  1
  Cu  Cu4  1  0.82820003  0.82560439  0.48400515  1
  Si  Si5  1  0.32801714  0.82663389  0.48329517  1
