# generated using pymatgen
data_Er2MnAl3Ni2
_symmetry_space_group_name_H-M   'P 1'
_cell_length_a   3.99961626
_cell_length_b   6.49060343
_cell_length_c   5.77691514
_cell_angle_alpha   111.66686661
_cell_angle_beta   90.02676692
_cell_angle_gamma   89.99672221
_symmetry_Int_Tables_number   1
_chemical_formula_structural   Er2MnAl3Ni2
_chemical_formula_sum   'Er2 Mn1 Al3 Ni2'
_cell_volume   139.37243280
_cell_formula_units_Z   1
loop_
 _symmetry_equiv_pos_site_id
 _symmetry_equiv_pos_as_xyz
  1  'x, y, z'
loop_
 _atom_site_type_symbol
 _atom_site_label
 _atom_site_symmetry_multiplicity
 _atom_site_fract_x
 _atom_site_fract_y
 _atom_site_fract_z
 _atom_site_occupancy
  Er  Er0  1  0.58949921  0.88731774  0.11012981  1
  Er  Er1  1  0.08911363  0.75344464  0.55259231  1
  Mn  Mn2  1  0.58939717  0.14335372  0.73313856  1
  Al  Al3  1  0.08949875  0.50238837  0.92680301  1
  Al  Al4  1  0.08940877  0.21940961  0.45366436  1
  Al  Al5  1  0.58901665  0.39484369  0.20303931  1
  Ni  Ni6  1  0.08916489  0.15795416  -0.00028979  1
  Ni  Ni7  1  0.58931353  0.47997131  0.64615837  1
