# generated using pymatgen
data_Er2Se3
_symmetry_space_group_name_H-M   'P 1'
_cell_length_a   4.14280888
_cell_length_b   7.70223924
_cell_length_c   8.66571917
_cell_angle_alpha   90.06287951
_cell_angle_beta   76.14825310
_cell_angle_gamma   90.00776891
_symmetry_Int_Tables_number   1
_chemical_formula_structural   Er2Se3
_chemical_formula_sum   'Er4 Se6'
_cell_volume   268.47200307
_cell_formula_units_Z   2
loop_
 _symmetry_equiv_pos_site_id
 _symmetry_equiv_pos_as_xyz
  1  'x, y, z'
loop_
 _atom_site_type_symbol
 _atom_site_label
 _atom_site_symmetry_multiplicity
 _atom_site_fract_x
 _atom_site_fract_y
 _atom_site_fract_z
 _atom_site_occupancy
  Er  Er0  1  0.08861462  0.27518858  0.99152705  1
  Er  Er1  1  0.37492457  0.52036864  0.39851835  1
  Er  Er2  1  0.37841318  0.02038974  0.39654633  1
  Er  Er3  1  0.68297279  0.77557321  0.80347035  1
  Se  Se4  1  0.22030918  0.52526260  0.72867429  1
  Se  Se5  1  0.55129816  0.52567270  0.06896531  1
  Se  Se6  1  0.86405117  0.77114972  0.42573143  1
  Se  Se7  1  0.22163204  0.02579718  0.72638798  1
  Se  Se8  1  0.89137175  0.27102608  0.37041279  1
  Se  Se9  1  0.55101282  0.02506052  0.06641673  1
