# generated using pymatgen
data_Er2TlAu
_symmetry_space_group_name_H-M   'P 1'
_cell_length_a   3.58328519
_cell_length_b   3.59397067
_cell_length_c   7.69691962
_cell_angle_alpha   90.00269720
_cell_angle_beta   90.01541347
_cell_angle_gamma   90.09320760
_symmetry_Int_Tables_number   1
_chemical_formula_structural   Er2TlAu
_chemical_formula_sum   'Er2 Tl1 Au1'
_cell_volume   99.12250370
_cell_formula_units_Z   1
loop_
 _symmetry_equiv_pos_site_id
 _symmetry_equiv_pos_as_xyz
  1  'x, y, z'
loop_
 _atom_site_type_symbol
 _atom_site_label
 _atom_site_symmetry_multiplicity
 _atom_site_fract_x
 _atom_site_fract_y
 _atom_site_fract_z
 _atom_site_occupancy
  Er  Er0  1  0.14155767  0.17755855  0.13030970  1
  Er  Er1  1  0.14280818  0.17580989  0.67652939  1
  Tl  Tl2  1  0.64238629  0.67690411  0.40322949  1
  Au  Au3  1  0.64091148  0.67554334  0.90345180  1
