# generated using pymatgen
data_Er3InAu2
_symmetry_space_group_name_H-M   'P 1'
_cell_length_a   4.96355393
_cell_length_b   4.86214172
_cell_length_c   6.57871113
_cell_angle_alpha   90.12473127
_cell_angle_beta   111.79380101
_cell_angle_gamma   89.91138646
_symmetry_Int_Tables_number   1
_chemical_formula_structural   Er3InAu2
_chemical_formula_sum   'Er3 In1 Au2'
_cell_volume   147.41920972
_cell_formula_units_Z   1
loop_
 _symmetry_equiv_pos_site_id
 _symmetry_equiv_pos_as_xyz
  1  'x, y, z'
loop_
 _atom_site_type_symbol
 _atom_site_label
 _atom_site_symmetry_multiplicity
 _atom_site_fract_x
 _atom_site_fract_y
 _atom_site_fract_z
 _atom_site_occupancy
  Er  Er0  1  0.50072913  0.26982991  0.63076554  1
  Er  Er1  1  0.02126062  0.77096238  0.67504459  1
  Er  Er2  1  0.72706653  0.77227864  0.09173485  1
  In  In3  1  0.19881972  0.27159901  0.03182198  1
  Au  Au4  1  0.35915568  0.76846464  0.35777909  1
  Au  Au5  1  0.87777243  0.27211383  0.37881054  1
