# generated using pymatgen
data_Er6SiIr
_symmetry_space_group_name_H-M   'P 1'
_cell_length_a   4.42342936
_cell_length_b   6.03024105
_cell_length_c   9.15613703
_cell_angle_alpha   67.06558854
_cell_angle_beta   76.06165979
_cell_angle_gamma   68.52576594
_symmetry_Int_Tables_number   1
_chemical_formula_structural   Er6SiIr
_chemical_formula_sum   'Er6 Si1 Ir1'
_cell_volume   207.93441240
_cell_formula_units_Z   1
loop_
 _symmetry_equiv_pos_site_id
 _symmetry_equiv_pos_as_xyz
  1  'x, y, z'
loop_
 _atom_site_type_symbol
 _atom_site_label
 _atom_site_symmetry_multiplicity
 _atom_site_fract_x
 _atom_site_fract_y
 _atom_site_fract_z
 _atom_site_occupancy
  Er  Er0  1  0.30977683  0.13750225  0.00802552  1
  Er  Er1  1  0.37495174  0.41595145  0.59936840  1
  Er  Er2  1  0.84764073  0.76600123  0.30447989  1
  Er  Er3  1  0.63044529  0.72211998  0.78217217  1
  Er  Er4  1  0.11072037  0.08793114  0.45568070  1
  Er  Er5  1  0.56672106  0.44969875  0.18164015  1
  Si  Si6  1  0.92822647  0.11821003  0.78998732  1
  Ir  Ir7  1  0.04025798  0.68255265  0.00175337  1
