# generated using pymatgen
data_ErNiBiRu
_symmetry_space_group_name_H-M   'P 1'
_cell_length_a   3.53370937
_cell_length_b   5.20969049
_cell_length_c   4.52695290
_cell_angle_alpha   76.21551379
_cell_angle_beta   89.91129656
_cell_angle_gamma   109.63164460
_symmetry_Int_Tables_number   1
_chemical_formula_structural   ErNiBiRu
_chemical_formula_sum   'Er1 Ni1 Bi1 Ru1'
_cell_volume   75.93008614
_cell_formula_units_Z   1
loop_
 _symmetry_equiv_pos_site_id
 _symmetry_equiv_pos_as_xyz
  1  'x, y, z'
loop_
 _atom_site_type_symbol
 _atom_site_label
 _atom_site_symmetry_multiplicity
 _atom_site_fract_x
 _atom_site_fract_y
 _atom_site_fract_z
 _atom_site_occupancy
  Er  Er0  1  0.29640302  0.23730359  0.00032978  1
  Ni  Ni1  1  0.03065928  0.70984915  0.86260932  1
  Bi  Bi2  1  0.53518679  0.71269445  0.37397409  1
  Ru  Ru3  1  0.80215191  0.24454181  0.50852986  1
