# generated using pymatgen
data_ErSc3Sn2IrRh
_symmetry_space_group_name_H-M   'P 1'
_cell_length_a   5.53732963
_cell_length_b   5.86498199
_cell_length_c   5.68574691
_cell_angle_alpha   74.93177362
_cell_angle_beta   86.26648477
_cell_angle_gamma   75.77393968
_symmetry_Int_Tables_number   1
_chemical_formula_structural   ErSc3Sn2IrRh
_chemical_formula_sum   'Er1 Sc3 Sn2 Ir1 Rh1'
_cell_volume   172.83527683
_cell_formula_units_Z   1
loop_
 _symmetry_equiv_pos_site_id
 _symmetry_equiv_pos_as_xyz
  1  'x, y, z'
loop_
 _atom_site_type_symbol
 _atom_site_label
 _atom_site_symmetry_multiplicity
 _atom_site_fract_x
 _atom_site_fract_y
 _atom_site_fract_z
 _atom_site_occupancy
  Er  Er0  1  0.31670085  0.66016093  0.79553572  1
  Sc  Sc1  1  0.71911886  -0.03962732  0.95273191  1
  Sc  Sc2  1  0.81561646  0.57819172  0.47857267  1
  Sc  Sc3  1  0.40485182  0.28131768  0.34120413  1
  Sn  Sn4  1  0.94312657  0.05631123  0.41184644  1
  Sn  Sn5  1  0.17429557  0.18307170  0.87132624  1
  Ir  Ir6  1  0.36508834  0.76181876  0.26703941  1
  Rh  Rh7  1  0.78215891  0.47712147  0.02967848  1
