# generated using pymatgen
data_ErZnNiIr
_symmetry_space_group_name_H-M   'P 1'
_cell_length_a   4.34036952
_cell_length_b   4.34237999
_cell_length_c   4.60554104
_cell_angle_alpha   61.78429966
_cell_angle_beta   61.97224758
_cell_angle_gamma   90.10169245
_symmetry_Int_Tables_number   1
_chemical_formula_structural   ErZnNiIr
_chemical_formula_sum   'Er1 Zn1 Ni1 Ir1'
_cell_volume   64.65929945
_cell_formula_units_Z   1
loop_
 _symmetry_equiv_pos_site_id
 _symmetry_equiv_pos_as_xyz
  1  'x, y, z'
loop_
 _atom_site_type_symbol
 _atom_site_label
 _atom_site_symmetry_multiplicity
 _atom_site_fract_x
 _atom_site_fract_y
 _atom_site_fract_z
 _atom_site_occupancy
  Er  Er0  1  0.87555913  0.59602482  0.23022573  1
  Zn  Zn1  1  0.37551540  0.09563794  0.23010981  1
  Ni  Ni2  1  0.12597245  0.34783831  0.73035249  1
  Ir  Ir3  1  0.62540875  0.84507590  0.73007739  1
