# generated using pymatgen
data_EuDyBiO2
_symmetry_space_group_name_H-M   'P 1'
_cell_length_a   3.99729146
_cell_length_b   3.90393944
_cell_length_c   7.59349894
_cell_angle_alpha   104.07160212
_cell_angle_beta   94.85996878
_cell_angle_gamma   90.17144973
_symmetry_Int_Tables_number   1
_chemical_formula_structural   EuDyBiO2
_chemical_formula_sum   'Eu1 Dy1 Bi1 O2'
_cell_volume   114.49476662
_cell_formula_units_Z   1
loop_
 _symmetry_equiv_pos_site_id
 _symmetry_equiv_pos_as_xyz
  1  'x, y, z'
loop_
 _atom_site_type_symbol
 _atom_site_label
 _atom_site_symmetry_multiplicity
 _atom_site_fract_x
 _atom_site_fract_y
 _atom_site_fract_z
 _atom_site_occupancy
  Eu  Eu0  1  0.28921775  0.57297111  -0.03321427  1
  Dy  Dy1  1  0.74351052  0.93010729  0.66614172  1
  Bi  Bi2  1  0.85100573  0.23669358  0.29058175  1
  O  O3  1  0.26044822  0.98862086  0.78909038  1
  O  O4  1  0.76206467  0.49537339  0.80439291  1
