# generated using pymatgen
data_F2
_symmetry_space_group_name_H-M   'P 1'
_cell_length_a   2.89570663
_cell_length_b   3.13723060
_cell_length_c   5.81860238
_cell_angle_alpha   117.28592481
_cell_angle_beta   114.80161019
_cell_angle_gamma   106.27004833
_symmetry_Int_Tables_number   1
_chemical_formula_structural   F2
_chemical_formula_sum   F3
_cell_volume   34.56655558
_cell_formula_units_Z   1
loop_
 _symmetry_equiv_pos_site_id
 _symmetry_equiv_pos_as_xyz
  1  'x, y, z'
loop_
 _atom_site_type_symbol
 _atom_site_label
 _atom_site_symmetry_multiplicity
 _atom_site_fract_x
 _atom_site_fract_y
 _atom_site_fract_z
 _atom_site_occupancy
  F  F0  1  0.37410589  0.11398512  0.74990335  1
  F  F1  1  0.68555570  0.43331978  0.47256079  1
  F  F2  1  -0.05491327  0.83750486  0.10618728  1
