# generated using pymatgen
data_Fe5Pt
_symmetry_space_group_name_H-M   'P 1'
_cell_length_a   2.88561042
_cell_length_b   6.54534106
_cell_length_c   9.32170723
_cell_angle_alpha   106.48923337
_cell_angle_beta   89.98653246
_cell_angle_gamma   116.08542813
_symmetry_Int_Tables_number   1
_chemical_formula_structural   Fe5Pt
_chemical_formula_sum   'Fe10 Pt2'
_cell_volume   150.03024051
_cell_formula_units_Z   2
loop_
 _symmetry_equiv_pos_site_id
 _symmetry_equiv_pos_as_xyz
  1  'x, y, z'
loop_
 _atom_site_type_symbol
 _atom_site_label
 _atom_site_symmetry_multiplicity
 _atom_site_fract_x
 _atom_site_fract_y
 _atom_site_fract_z
 _atom_site_occupancy
  Fe  Fe0  1  0.34512912  0.34819518  0.05986338  1
  Fe  Fe1  1  0.70997464  0.71330130  0.71649542  1
  Fe  Fe2  1  0.87231928  0.87554543  0.06034433  1
  Fe  Fe3  1  0.00120679  0.00417645  0.37401582  1
  Fe  Fe4  1  0.52836293  0.53164688  0.37456083  1
  Fe  Fe5  1  0.52337101  0.02606817  0.88953744  1
  Fe  Fe6  1  0.18404170  0.68739596  0.21282704  1
  Fe  Fe7  1  0.68963745  0.19243637  0.22156962  1
  Fe  Fe8  1  0.16394502  0.16654169  0.71787959  1
  Fe  Fe9  1  0.35030666  0.85369477  0.54486145  1
  Pt  Pt10  1  0.85075231  0.35396697  0.54735944  1
  Pt  Pt11  1  0.02279310  0.52578312  0.88699820  1
