# generated using pymatgen
data_FeNi4Ge3Ru2
_symmetry_space_group_name_H-M   'P 1'
_cell_length_a   4.69315992
_cell_length_b   5.01353820
_cell_length_c   6.47523622
_cell_angle_alpha   75.34485021
_cell_angle_beta   71.57117913
_cell_angle_gamma   62.21511458
_symmetry_Int_Tables_number   1
_chemical_formula_structural   FeNi4Ge3Ru2
_chemical_formula_sum   'Fe1 Ni4 Ge3 Ru2'
_cell_volume   126.86235820
_cell_formula_units_Z   1
loop_
 _symmetry_equiv_pos_site_id
 _symmetry_equiv_pos_as_xyz
  1  'x, y, z'
loop_
 _atom_site_type_symbol
 _atom_site_label
 _atom_site_symmetry_multiplicity
 _atom_site_fract_x
 _atom_site_fract_y
 _atom_site_fract_z
 _atom_site_occupancy
  Fe  Fe0  1  0.71002031  0.51242061  0.82117225  1
  Ni  Ni1  1  0.65953822  0.29372846  0.23128948  1
  Ni  Ni2  1  0.26774395  0.82296552  0.13207771  1
  Ni  Ni3  1  0.22559700  -0.01497603  0.73781929  1
  Ni  Ni4  1  0.68613409  0.12731872  0.63096019  1
  Ge  Ge5  1  0.16022808  0.17749472  0.36834493  1
  Ge  Ge6  1  0.75020430  0.94476473  -0.00036346  1
  Ge  Ge7  1  0.22080232  0.59297639  0.55918962  1
  Ru  Ru8  1  0.19394940  0.41518997  0.97630151  1
  Ru  Ru9  1  0.72982345  0.71075456  0.40063965  1
