# generated using pymatgen
data_FeTc2
_symmetry_space_group_name_H-M   'P 1'
_cell_length_a   2.68916692
_cell_length_b   2.68590253
_cell_length_c   6.46875353
_cell_angle_alpha   89.97745146
_cell_angle_beta   90.06450965
_cell_angle_gamma   119.90779513
_symmetry_Int_Tables_number   1
_chemical_formula_structural   FeTc2
_chemical_formula_sum   'Fe1 Tc2'
_cell_volume   40.50062470
_cell_formula_units_Z   1
loop_
 _symmetry_equiv_pos_site_id
 _symmetry_equiv_pos_as_xyz
  1  'x, y, z'
loop_
 _atom_site_type_symbol
 _atom_site_label
 _atom_site_symmetry_multiplicity
 _atom_site_fract_x
 _atom_site_fract_y
 _atom_site_fract_z
 _atom_site_occupancy
  Fe  Fe0  1  0.19656042  0.76459935  0.48724680  1
  Tc  Tc1  1  0.52943173  0.42555597  0.15869881  1
  Tc  Tc2  1  0.85913148  0.08921103  0.81592854  1
