# generated using pymatgen
data_Ga3Fe4Ge
_symmetry_space_group_name_H-M   'P 1'
_cell_length_a   4.08418671
_cell_length_b   4.08506848
_cell_length_c   5.77786010
_cell_angle_alpha   89.88746671
_cell_angle_beta   90.00994628
_cell_angle_gamma   90.06380159
_symmetry_Int_Tables_number   1
_chemical_formula_structural   Ga3Fe4Ge
_chemical_formula_sum   'Ga3 Fe4 Ge1'
_cell_volume   96.39862449
_cell_formula_units_Z   1
loop_
 _symmetry_equiv_pos_site_id
 _symmetry_equiv_pos_as_xyz
  1  'x, y, z'
loop_
 _atom_site_type_symbol
 _atom_site_label
 _atom_site_symmetry_multiplicity
 _atom_site_fract_x
 _atom_site_fract_y
 _atom_site_fract_z
 _atom_site_occupancy
  Ga  Ga0  1  0.40531899  0.78878741  0.76947352  1
  Ga  Ga1  1  0.90516541  0.28837861  0.76948455  1
  Ga  Ga2  1  0.40552664  0.78876364  0.26943075  1
  Fe  Fe3  1  0.90524381  0.78716415  0.02480781  1
  Fe  Fe4  1  0.40567270  0.28935121  0.51386975  1
  Fe  Fe5  1  0.90579896  0.78947167  0.51389913  1
  Fe  Fe6  1  0.40462540  0.28827351  0.02488974  1
  Ge  Ge7  1  0.90486965  0.28842056  0.26958857  1
