# generated using pymatgen
data_Ga
_symmetry_space_group_name_H-M   'P 1'
_cell_length_a   3.71578775
_cell_length_b   3.70857075
_cell_length_c   5.17776203
_cell_angle_alpha   89.93447777
_cell_angle_beta   90.35349194
_cell_angle_gamma   89.72510755
_symmetry_Int_Tables_number   1
_chemical_formula_structural   Ga
_chemical_formula_sum   Ga3
_cell_volume   71.34868795
_cell_formula_units_Z   3
loop_
 _symmetry_equiv_pos_site_id
 _symmetry_equiv_pos_as_xyz
  1  'x, y, z'
loop_
 _atom_site_type_symbol
 _atom_site_label
 _atom_site_symmetry_multiplicity
 _atom_site_fract_x
 _atom_site_fract_y
 _atom_site_fract_z
 _atom_site_occupancy
  Ga  Ga0  1  0.71173075  0.44093046  0.40575497  1
  Ga  Ga1  1  0.71265185  0.43740222  0.90631868  1
  Ga  Ga2  1  0.21188019  0.94043260  0.40641984  1
