# generated using pymatgen
data_GaCo2
_symmetry_space_group_name_H-M   'P 1'
_cell_length_a   2.81983887
_cell_length_b   2.81055593
_cell_length_c   8.85353182
_cell_angle_alpha   90.12740505
_cell_angle_beta   90.03383712
_cell_angle_gamma   90.08137397
_symmetry_Int_Tables_number   1
_chemical_formula_structural   GaCo2
_chemical_formula_sum   'Ga2 Co4'
_cell_volume   70.16677055
_cell_formula_units_Z   2
loop_
 _symmetry_equiv_pos_site_id
 _symmetry_equiv_pos_as_xyz
  1  'x, y, z'
loop_
 _atom_site_type_symbol
 _atom_site_label
 _atom_site_symmetry_multiplicity
 _atom_site_fract_x
 _atom_site_fract_y
 _atom_site_fract_z
 _atom_site_occupancy
  Ga  Ga0  1  0.17357590  0.96440270  0.92429264  1
  Ga  Ga1  1  0.17284942  0.96304990  0.26367329  1
  Co  Co2  1  0.67256212  0.46343342  0.43217685  1
  Co  Co3  1  0.17276600  0.96402119  0.59389357  1
  Co  Co4  1  0.67354133  0.46469959  0.75561625  1
  Co  Co5  1  0.67337586  0.46360451  0.09397835  1
