# generated using pymatgen
data_GdPO3
_symmetry_space_group_name_H-M   'P 1'
_cell_length_a   4.26430139
_cell_length_b   4.31469277
_cell_length_c   8.23376795
_cell_angle_alpha   89.95875516
_cell_angle_beta   90.30974677
_cell_angle_gamma   111.98750658
_symmetry_Int_Tables_number   1
_chemical_formula_structural   GdPO3
_chemical_formula_sum   'Gd2 P2 O6'
_cell_volume   140.47328096
_cell_formula_units_Z   2
loop_
 _symmetry_equiv_pos_site_id
 _symmetry_equiv_pos_as_xyz
  1  'x, y, z'
loop_
 _atom_site_type_symbol
 _atom_site_label
 _atom_site_symmetry_multiplicity
 _atom_site_fract_x
 _atom_site_fract_y
 _atom_site_fract_z
 _atom_site_occupancy
  Gd  Gd0  1  0.58263828  0.67477257  0.16552894  1
  Gd  Gd1  1  0.58324984  0.67419877  0.66535311  1
  P  P2  1  0.21404202  0.16293759  0.41569729  1
  P  P3  1  1.07243985  0.30651765  0.91607877  1
  O  O4  1  0.86384678  0.84404575  0.41568474  1
  O  O5  1  0.40292777  0.10512415  0.57554536  1
  O  O6  1  0.75425893  0.95771261  0.91542444  1
  O  O7  1  0.40049077  0.10515553  0.25605210  1
  O  O8  1  0.01106850  0.49322573  0.07466752  1
  O  O9  1  0.01306605  0.49273258  0.75651991  1
