# generated using pymatgen
data_Ge4PdRu
_symmetry_space_group_name_H-M   'P 1'
_cell_length_a   3.09680012
_cell_length_b   5.40644781
_cell_length_c   6.72536108
_cell_angle_alpha   110.53633653
_cell_angle_beta   103.26934524
_cell_angle_gamma   90.03883089
_symmetry_Int_Tables_number   1
_chemical_formula_structural   Ge4PdRu
_chemical_formula_sum   'Ge4 Pd1 Ru1'
_cell_volume   102.22160019
_cell_formula_units_Z   1
loop_
 _symmetry_equiv_pos_site_id
 _symmetry_equiv_pos_as_xyz
  1  'x, y, z'
loop_
 _atom_site_type_symbol
 _atom_site_label
 _atom_site_symmetry_multiplicity
 _atom_site_fract_x
 _atom_site_fract_y
 _atom_site_fract_z
 _atom_site_occupancy
  Ge  Ge0  1  0.83261435  0.58831958  0.13431863  1
  Ge  Ge1  1  0.78171621  0.08647107  0.03242157  1
  Ge  Ge2  1  0.10594027  0.17797217  0.68167838  1
  Ge  Ge3  1  0.52905277  0.54471205  0.52775766  1
  Pd  Pd4  1  0.43197385  0.02023540  0.33534116  1
  Ru  Ru5  1  0.19913612  0.69688407  0.86757885  1
