# generated using pymatgen
data_H4Br
_symmetry_space_group_name_H-M   'P 1'
_cell_length_a   5.06132766
_cell_length_b   5.05991556
_cell_length_c   5.69702304
_cell_angle_alpha   57.95193723
_cell_angle_beta   54.55571371
_cell_angle_gamma   90.27447962
_symmetry_Int_Tables_number   1
_chemical_formula_structural   H4Br
_chemical_formula_sum   'H4 Br1'
_cell_volume   89.83980904
_cell_formula_units_Z   1
loop_
 _symmetry_equiv_pos_site_id
 _symmetry_equiv_pos_as_xyz
  1  'x, y, z'
loop_
 _atom_site_type_symbol
 _atom_site_label
 _atom_site_symmetry_multiplicity
 _atom_site_fract_x
 _atom_site_fract_y
 _atom_site_fract_z
 _atom_site_occupancy
  H  H0  1  0.89543254  0.05045986  0.57243174  1
  H  H1  1  0.01348149  0.05523943  0.00877131  1
  H  H2  1  0.00591051  0.22665311  0.92962287  1
  H  H3  1  0.10089960  0.25066930  0.36836428  1
  Br  Br4  1  0.51153879  0.64028515  0.96777459  1
