# generated using pymatgen
data_HfCoCl6
_symmetry_space_group_name_H-M   'P 1'
_cell_length_a   6.15697053
_cell_length_b   6.40823003
_cell_length_c   12.07521434
_cell_angle_alpha   90.79333768
_cell_angle_beta   88.03699098
_cell_angle_gamma   105.34435533
_symmetry_Int_Tables_number   1
_chemical_formula_structural   HfCoCl6
_chemical_formula_sum   'Hf2 Co2 Cl12'
_cell_volume   459.17232099
_cell_formula_units_Z   2
loop_
 _symmetry_equiv_pos_site_id
 _symmetry_equiv_pos_as_xyz
  1  'x, y, z'
loop_
 _atom_site_type_symbol
 _atom_site_label
 _atom_site_symmetry_multiplicity
 _atom_site_fract_x
 _atom_site_fract_y
 _atom_site_fract_z
 _atom_site_occupancy
  Hf  Hf0  1  0.67636605  0.22281577  0.78891919  1
  Hf  Hf1  1  0.70211611  0.74770926  0.26523362  1
  Co  Co2  1  0.72080304  0.76902372  0.59791117  1
  Co  Co3  1  0.19389904  0.75534430  0.43211513  1
  Cl  Cl4  1  0.50193581  0.50563153  0.73372287  1
  Cl  Cl5  1  0.95012776  0.46278403  0.88911579  1
  Cl  Cl6  1  0.43603753  0.03341541  0.92309428  1
  Cl  Cl7  1  0.50643679  0.03157528  0.61233731  1
  Cl  Cl8  1  0.43269459  0.97397150  0.31014456  1
  Cl  Cl9  1  0.93711083  0.00372731  0.74410058  1
  Cl  Cl10  1  0.47215293  0.50950108  0.14631961  1
  Cl  Cl11  1  0.45934848  0.57044470  0.44650533  1
  Cl  Cl12  1  0.95078005  0.51935145  0.29574573  1
  Cl  Cl13  1  0.99464097  0.58318098  0.57606364  1
  Cl  Cl14  1  0.91645381  -0.00318835  0.14156583  1
  Cl  Cl15  1  0.95200825  0.96939603  0.43291467  1
