# generated using pymatgen
data_Ho2Mg2CuHg
_symmetry_space_group_name_H-M   'P 1'
_cell_length_a   4.69266663
_cell_length_b   5.62029114
_cell_length_c   6.59309078
_cell_angle_alpha   65.30627498
_cell_angle_beta   69.20061194
_cell_angle_gamma   65.29571766
_symmetry_Int_Tables_number   1
_chemical_formula_structural   Ho2Mg2CuHg
_chemical_formula_sum   'Ho2 Mg2 Cu1 Hg1'
_cell_volume   140.05275543
_cell_formula_units_Z   1
loop_
 _symmetry_equiv_pos_site_id
 _symmetry_equiv_pos_as_xyz
  1  'x, y, z'
loop_
 _atom_site_type_symbol
 _atom_site_label
 _atom_site_symmetry_multiplicity
 _atom_site_fract_x
 _atom_site_fract_y
 _atom_site_fract_z
 _atom_site_occupancy
  Ho  Ho0  1  0.67471543  0.74289939  0.80469980  1
  Ho  Ho1  1  0.41577179  0.68389029  0.38189964  1
  Mg  Mg2  1  0.04929173  0.20622290  0.59334378  1
  Mg  Mg3  1  0.78453010  0.12946084  0.19972816  1
  Cu  Cu4  1  0.07565935  0.57865927  0.16770948  1
  Hg  Hg5  1  0.36021675  0.29340107  0.88291881  1
