# generated using pymatgen
data_Ho3Ni2Ge3
_symmetry_space_group_name_H-M   'P 1'
_cell_length_a   4.08217857
_cell_length_b   5.63041994
_cell_length_c   7.65637985
_cell_angle_alpha   110.66172697
_cell_angle_beta   105.35596176
_cell_angle_gamma   90.17635117
_symmetry_Int_Tables_number   1
_chemical_formula_structural   Ho3Ni2Ge3
_chemical_formula_sum   'Ho3 Ni2 Ge3'
_cell_volume   157.86878615
_cell_formula_units_Z   1
loop_
 _symmetry_equiv_pos_site_id
 _symmetry_equiv_pos_as_xyz
  1  'x, y, z'
loop_
 _atom_site_type_symbol
 _atom_site_label
 _atom_site_symmetry_multiplicity
 _atom_site_fract_x
 _atom_site_fract_y
 _atom_site_fract_z
 _atom_site_occupancy
  Ho  Ho0  1  0.18286585  0.98854288  0.43060234  1
  Ho  Ho1  1  0.47342225  0.05759583  0.01211986  1
  Ho  Ho2  1  0.88238825  0.46399010  0.83041166  1
  Ni  Ni3  1  0.28432827  0.63369678  0.63242484  1
  Ni  Ni4  1  0.68407317  0.49417848  0.43013420  1
  Ge  Ge5  1  0.09916443  0.38285610  0.26113531  1
  Ge  Ge6  1  0.81711940  0.90459527  0.69852168  1
  Ge  Ge7  1  0.53868889  0.64020665  0.14477772  1
