# generated using pymatgen
data_HoTlAu2
_symmetry_space_group_name_H-M   'P 1'
_cell_length_a   4.73240201
_cell_length_b   4.29001653
_cell_length_c   5.41928606
_cell_angle_alpha   66.61128111
_cell_angle_beta   63.87765975
_cell_angle_gamma   89.87719336
_symmetry_Int_Tables_number   1
_chemical_formula_structural   HoTlAu2
_chemical_formula_sum   'Ho1 Tl1 Au2'
_cell_volume   88.65591765
_cell_formula_units_Z   1
loop_
 _symmetry_equiv_pos_site_id
 _symmetry_equiv_pos_as_xyz
  1  'x, y, z'
loop_
 _atom_site_type_symbol
 _atom_site_label
 _atom_site_symmetry_multiplicity
 _atom_site_fract_x
 _atom_site_fract_y
 _atom_site_fract_z
 _atom_site_occupancy
  Ho  Ho0  1  0.11392679  0.96542379  0.78602197  1
  Tl  Tl1  1  0.37386564  0.72784561  0.26479888  1
  Au  Au2  1  0.61883114  0.47266662  0.77465020  1
  Au  Au3  1  0.85958015  0.21355741  0.29141950  1
