# generated using pymatgen
data_In3Pt
_symmetry_space_group_name_H-M   'P 1'
_cell_length_a   4.30628641
_cell_length_b   5.60109256
_cell_length_c   8.23866370
_cell_angle_alpha   74.75205749
_cell_angle_beta   90.02923829
_cell_angle_gamma   89.96106371
_symmetry_Int_Tables_number   1
_chemical_formula_structural   In3Pt
_chemical_formula_sum   'In6 Pt2'
_cell_volume   191.72028496
_cell_formula_units_Z   2
loop_
 _symmetry_equiv_pos_site_id
 _symmetry_equiv_pos_as_xyz
  1  'x, y, z'
loop_
 _atom_site_type_symbol
 _atom_site_label
 _atom_site_symmetry_multiplicity
 _atom_site_fract_x
 _atom_site_fract_y
 _atom_site_fract_z
 _atom_site_occupancy
  In  In0  1  0.67180384  0.53253272  0.94651666  1
  In  In1  1  0.17147673  0.44115407  0.26840014  1
  In  In2  1  0.67116488  0.43686051  0.55084009  1
  In  In3  1  0.17203734  0.90047787  0.68426022  1
  In  In4  1  0.67217057  0.99203156  0.36237270  1
  In  In5  1  0.17264935  -0.00369651  0.07966072  1
  Pt  Pt6  1  0.67177800  0.04248838  0.86170619  1
  Pt  Pt7  1  0.17201506  0.39070010  0.76873264  1
