# generated using pymatgen
data_InAu
_symmetry_space_group_name_H-M   'P 1'
_cell_length_a   3.92093605
_cell_length_b   3.93102966
_cell_length_c   3.92551982
_cell_angle_alpha   64.93523776
_cell_angle_beta   64.86965693
_cell_angle_gamma   64.92252752
_symmetry_Int_Tables_number   1
_chemical_formula_structural   InAu
_chemical_formula_sum   'In1 Au1'
_cell_volume   47.37376755
_cell_formula_units_Z   1
loop_
 _symmetry_equiv_pos_site_id
 _symmetry_equiv_pos_as_xyz
  1  'x, y, z'
loop_
 _atom_site_type_symbol
 _atom_site_label
 _atom_site_symmetry_multiplicity
 _atom_site_fract_x
 _atom_site_fract_y
 _atom_site_fract_z
 _atom_site_occupancy
  In  In0  1  0.00761384  0.94774901  0.77421921  1
  Au  Au1  1  0.50693593  0.44826225  0.27431811  1
