# generated using pymatgen
data_InCo2Cu5
_symmetry_space_group_name_H-M   'P 1'
_cell_length_a   4.50769626
_cell_length_b   5.89085523
_cell_length_c   4.51374490
_cell_angle_alpha   105.20894769
_cell_angle_beta   71.93185542
_cell_angle_gamma   74.83242617
_symmetry_Int_Tables_number   1
_chemical_formula_structural   InCo2Cu5
_chemical_formula_sum   'In1 Co2 Cu5'
_cell_volume   101.98234052
_cell_formula_units_Z   1
loop_
 _symmetry_equiv_pos_site_id
 _symmetry_equiv_pos_as_xyz
  1  'x, y, z'
loop_
 _atom_site_type_symbol
 _atom_site_label
 _atom_site_symmetry_multiplicity
 _atom_site_fract_x
 _atom_site_fract_y
 _atom_site_fract_z
 _atom_site_occupancy
  In  In0  1  0.90108775  0.96409087  0.26861493  1
  Co  Co1  1  0.26338952  0.23931597  0.40771939  1
  Co  Co2  1  0.04044757  0.68839107  0.63089015  1
  Cu  Cu3  1  0.15763411  0.44914142  0.01222989  1
  Cu  Cu4  1  0.53162922  0.70273140  0.13734956  1
  Cu  Cu5  1  0.76920056  0.22576773  0.89946333  1
  Cu  Cu6  1  0.64429194  0.47920564  0.52641008  1
  Cu  Cu7  1  0.40102057  0.96436763  0.76891564  1
