# generated using pymatgen
data_InF3
_symmetry_space_group_name_H-M   'P 1'
_cell_length_a   5.25284594
_cell_length_b   4.35855776
_cell_length_c   5.16215481
_cell_angle_alpha   66.44058220
_cell_angle_beta   86.48035419
_cell_angle_gamma   90.51393671
_symmetry_Int_Tables_number   1
_chemical_formula_structural   InF3
_chemical_formula_sum   'In2 F6'
_cell_volume   108.05846179
_cell_formula_units_Z   2
loop_
 _symmetry_equiv_pos_site_id
 _symmetry_equiv_pos_as_xyz
  1  'x, y, z'
loop_
 _atom_site_type_symbol
 _atom_site_label
 _atom_site_symmetry_multiplicity
 _atom_site_fract_x
 _atom_site_fract_y
 _atom_site_fract_z
 _atom_site_occupancy
  In  In0  1  0.71984670  0.02290766  0.96265003  1
  In  In1  1  0.21481926  0.68774659  0.61054124  1
  F  F2  1  -0.10231553  0.50982940  -0.07641554  1
  F  F3  1  0.96177369  0.80787772  0.29052309  1
  F  F4  1  0.04002078  0.14167001  0.65430998  1
  F  F5  1  0.51847378  0.36665835  0.62869410  1
  F  F6  1  0.46369798  0.03480091  0.28863837  1
  F  F7  1  0.41837481  0.70940734  0.94606627  1
