# generated using pymatgen
data_InGa2NiSe4
_symmetry_space_group_name_H-M   'P 1'
_cell_length_a   5.70099495
_cell_length_b   5.05481006
_cell_length_c   6.72701727
_cell_angle_alpha   90.77093317
_cell_angle_beta   81.24512401
_cell_angle_gamma   90.27469935
_symmetry_Int_Tables_number   1
_chemical_formula_structural   InGa2NiSe4
_chemical_formula_sum   'In1 Ga2 Ni1 Se4'
_cell_volume   191.57868265
_cell_formula_units_Z   1
loop_
 _symmetry_equiv_pos_site_id
 _symmetry_equiv_pos_as_xyz
  1  'x, y, z'
loop_
 _atom_site_type_symbol
 _atom_site_label
 _atom_site_symmetry_multiplicity
 _atom_site_fract_x
 _atom_site_fract_y
 _atom_site_fract_z
 _atom_site_occupancy
  In  In0  1  0.81147410  0.51496201  0.96783495  1
  Ga  Ga1  1  0.34385348  0.01420675  0.90987806  1
  Ga  Ga2  1  0.86140410  0.01409418  0.40173649  1
  Ni  Ni3  1  0.40912490  0.51846278  0.19513325  1
  Se  Se4  1  0.80119676  0.01360289  0.79912216  1
  Se  Se5  1  0.71968893  0.51448190  0.38549914  1
  Se  Se6  1  0.28088364  0.51233813  0.87028817  1
  Se  Se7  1  0.31380768  0.01099334  0.28944797  1
