# generated using pymatgen
data_K2BaNaSr2LiCdSbTeS4
_symmetry_space_group_name_H-M   'P 1'
_cell_length_a   4.77595429
_cell_length_b   4.77985602
_cell_length_c   21.27018726
_cell_angle_alpha   90.09041823
_cell_angle_beta   96.39545464
_cell_angle_gamma   119.94229932
_symmetry_Int_Tables_number   1
_chemical_formula_structural   K2BaNaSr2LiCdSbTeS4
_chemical_formula_sum   'K2 Ba1 Na1 Sr2 Li1 Cd1 Sb1 Te1 S4'
_cell_volume   417.21372093
_cell_formula_units_Z   1
loop_
 _symmetry_equiv_pos_site_id
 _symmetry_equiv_pos_as_xyz
  1  'x, y, z'
loop_
 _atom_site_type_symbol
 _atom_site_label
 _atom_site_symmetry_multiplicity
 _atom_site_fract_x
 _atom_site_fract_y
 _atom_site_fract_z
 _atom_site_occupancy
  K  K0  1  0.33629094  0.78048678  0.78167989  1
  K  K1  1  0.50445219  0.85747522  0.03499563  1
  Ba  Ba2  1  0.26577287  0.24093694  0.17695881  1
  Na  Na3  1  0.01920773  0.61981836  0.30691113  1
  Sr  Sr4  1  0.76565509  0.99525766  0.42505452  1
  Sr  Sr5  1  0.90830805  0.06732193  0.63911336  1
  Li  Li6  1  0.48871557  0.35706408  0.51039596  1
  Cd  Cd7  1  0.78409955  0.49626231  0.95442110  1
  Sb  Sb8  1  0.17259992  0.69940999  0.53595654  1
  Te  Te9  1  0.08544103  0.14662193  0.90626261  1
  S  S10  1  0.64466986  0.93078121  0.24537870  1
  S  S11  1  0.40752079  0.31631728  0.38791887  1
  S  S12  1  0.86801071  0.53924977  0.08052148  1
  S  S13  1  0.61513153  0.42070635  0.69960815  1
