# generated using pymatgen
data_K2CrCuNiSe5
_symmetry_space_group_name_H-M   'P 1'
_cell_length_a   6.18676630
_cell_length_b   5.98325659
_cell_length_c   8.49732191
_cell_angle_alpha   78.90779358
_cell_angle_beta   66.29782445
_cell_angle_gamma   59.59283372
_symmetry_Int_Tables_number   1
_chemical_formula_structural   K2CrCuNiSe5
_chemical_formula_sum   'K2 Cr1 Cu1 Ni1 Se5'
_cell_volume   248.37224913
_cell_formula_units_Z   1
loop_
 _symmetry_equiv_pos_site_id
 _symmetry_equiv_pos_as_xyz
  1  'x, y, z'
loop_
 _atom_site_type_symbol
 _atom_site_label
 _atom_site_symmetry_multiplicity
 _atom_site_fract_x
 _atom_site_fract_y
 _atom_site_fract_z
 _atom_site_occupancy
  K  K0  1  0.89510746  0.18815052  0.40637660  1
  K  K1  1  0.21545692  0.28534373  0.63427168  1
  Cr  Cr2  1  0.05478425  0.81497264  0.01896069  1
  Cu  Cu3  1  0.64745904  0.62159065  0.02171533  1
  Ni  Ni4  1  0.48191474  0.21505779  0.02110123  1
  Se  Se5  1  0.84044194  0.89398612  0.81125704  1
  Se  Se6  1  0.07773407  0.19658359  0.01790134  1
  Se  Se7  1  0.26520516  0.54739100  0.23123403  1
  Se  Se8  1  0.61003024  0.89998080  0.23168785  1
  Se  Se9  1  0.50090894  0.53709821  0.80726461  1
