# generated using pymatgen
data_K2F3
_symmetry_space_group_name_H-M   'P 1'
_cell_length_a   5.01591116
_cell_length_b   4.22335047
_cell_length_c   5.53447996
_cell_angle_alpha   97.49423888
_cell_angle_beta   90.17168946
_cell_angle_gamma   125.08461810
_symmetry_Int_Tables_number   1
_chemical_formula_structural   K2F3
_chemical_formula_sum   'K2 F3'
_cell_volume   94.68000167
_cell_formula_units_Z   1
loop_
 _symmetry_equiv_pos_site_id
 _symmetry_equiv_pos_as_xyz
  1  'x, y, z'
loop_
 _atom_site_type_symbol
 _atom_site_label
 _atom_site_symmetry_multiplicity
 _atom_site_fract_x
 _atom_site_fract_y
 _atom_site_fract_z
 _atom_site_occupancy
  K  K0  1  0.22705850  0.11824932  0.40321951  1
  K  K1  1  0.83578533  0.36106620  0.93840563  1
  F  F2  1  0.83690599  0.34736569  0.45053102  1
  F  F3  1  0.22525123  0.13055950  0.89098810  1
  F  F4  1  0.53093390  0.73949393  0.17005367  1
