# generated using pymatgen
data_K2RbNaSrCu3Se5
_symmetry_space_group_name_H-M   'P 1'
_cell_length_a   6.16731911
_cell_length_b   8.00706416
_cell_length_c   8.42842286
_cell_angle_alpha   77.21965567
_cell_angle_beta   66.17722678
_cell_angle_gamma   67.93030498
_symmetry_Int_Tables_number   1
_chemical_formula_structural   K2RbNaSrCu3Se5
_chemical_formula_sum   'K2 Rb1 Na1 Sr1 Cu3 Se5'
_cell_volume   351.66699446
_cell_formula_units_Z   1
loop_
 _symmetry_equiv_pos_site_id
 _symmetry_equiv_pos_as_xyz
  1  'x, y, z'
loop_
 _atom_site_type_symbol
 _atom_site_label
 _atom_site_symmetry_multiplicity
 _atom_site_fract_x
 _atom_site_fract_y
 _atom_site_fract_z
 _atom_site_occupancy
  K  K0  1  0.57951086  0.80862824  0.90097026  1
  K  K1  1  0.46909403  0.23707842  0.58087117  1
  Rb  Rb2  1  0.87343843  -0.03595030  0.09027388  1
  Na  Na3  1  0.00401160  0.46492537  0.30904733  1
  Sr  Sr4  1  0.24444961  0.81896548  0.45511719  1
  Cu  Cu5  1  0.63076310  0.53972490  0.67511891  1
  Cu  Cu6  1  0.47954723  0.37096110  0.98461276  1
  Cu  Cu7  1  0.96003766  0.37444002  0.97260860  1
  Se  Se8  1  0.72842218  0.79727937  0.49473492  1
  Se  Se9  1  0.18411146  0.60261201  0.82772910  1
  Se  Se10  1  0.54113018  0.49746541  0.20752265  1
  Se  Se11  1  0.89006633  0.25260916  0.74073631  1
  Se  Se12  1  0.25139613  0.14638380  0.12933776  1
