# generated using pymatgen
data_K2RbTlSeCl3O4
_symmetry_space_group_name_H-M   'P 1'
_cell_length_a   6.52531549
_cell_length_b   5.62796467
_cell_length_c   9.26678395
_cell_angle_alpha   76.90422137
_cell_angle_beta   72.45098625
_cell_angle_gamma   82.65613341
_symmetry_Int_Tables_number   1
_chemical_formula_structural   K2RbTlSeCl3O4
_chemical_formula_sum   'K2 Rb1 Tl1 Se1 Cl3 O4'
_cell_volume   315.38889105
_cell_formula_units_Z   1
loop_
 _symmetry_equiv_pos_site_id
 _symmetry_equiv_pos_as_xyz
  1  'x, y, z'
loop_
 _atom_site_type_symbol
 _atom_site_label
 _atom_site_symmetry_multiplicity
 _atom_site_fract_x
 _atom_site_fract_y
 _atom_site_fract_z
 _atom_site_occupancy
  K  K0  1  0.69433891  0.47920190  0.59526563  1
  K  K1  1  0.89011282  0.24331144  0.05668011  1
  Rb  Rb2  1  0.29552498  0.63836118  0.24087269  1
  Tl  Tl3  1  0.15218936  -0.01211421  0.67166835  1
  Se  Se4  1  0.56298738  0.90389312  0.85082375  1
  Cl  Cl5  1  0.16246585  0.49071629  0.67823118  1
  Cl  Cl6  1  0.09137865  0.11559658  0.39176220  1
  Cl  Cl7  1  0.78480655  0.68488380  0.23998140  1
  O  O8  1  0.77488650  0.06620726  0.83445606  1
  O  O9  1  0.53824305  0.95478964  0.66764422  1
  O  O10  1  0.61056312  0.60639305  0.90968642  1
  O  O11  1  0.33848279  0.01310894  0.96510421  1
