# generated using pymatgen
data_K3CSN2
_symmetry_space_group_name_H-M   'P 1'
_cell_length_a   5.23109596
_cell_length_b   5.76765621
_cell_length_c   5.88552087
_cell_angle_alpha   79.34324614
_cell_angle_beta   89.73169503
_cell_angle_gamma   90.38014641
_symmetry_Int_Tables_number   1
_chemical_formula_structural   K3CSN2
_chemical_formula_sum   'K3 C1 S1 N2'
_cell_volume   174.50335086
_cell_formula_units_Z   1
loop_
 _symmetry_equiv_pos_site_id
 _symmetry_equiv_pos_as_xyz
  1  'x, y, z'
loop_
 _atom_site_type_symbol
 _atom_site_label
 _atom_site_symmetry_multiplicity
 _atom_site_fract_x
 _atom_site_fract_y
 _atom_site_fract_z
 _atom_site_occupancy
  K  K0  1  0.69922041  0.08631444  0.31664333  1
  K  K1  1  0.70430828  0.59816708  0.80187797  1
  K  K2  1  0.20330785  0.07561549  0.80143608  1
  C  C3  1  0.20813026  0.62764669  0.35880516  1
  S  S4  1  0.20165826  0.45388963  0.16871404  1
  N  N5  1  0.70345104  0.09980045  0.81887393  1
  N  N6  1  0.21253995  0.75501884  0.49650843  1
