# generated using pymatgen
data_K3TlAg3Te4
_symmetry_space_group_name_H-M   'P 1'
_cell_length_a   6.86948514
_cell_length_b   6.91576891
_cell_length_c   8.08823963
_cell_angle_alpha   89.69676273
_cell_angle_beta   89.52036537
_cell_angle_gamma   94.72648139
_symmetry_Int_Tables_number   1
_chemical_formula_structural   K3TlAg3Te4
_chemical_formula_sum   'K3 Tl1 Ag3 Te4'
_cell_volume   382.92723358
_cell_formula_units_Z   1
loop_
 _symmetry_equiv_pos_site_id
 _symmetry_equiv_pos_as_xyz
  1  'x, y, z'
loop_
 _atom_site_type_symbol
 _atom_site_label
 _atom_site_symmetry_multiplicity
 _atom_site_fract_x
 _atom_site_fract_y
 _atom_site_fract_z
 _atom_site_occupancy
  K  K0  1  0.49445884  0.14674348  0.15075036  1
  K  K1  1  -0.00648595  0.64673232  0.14936726  1
  K  K2  1  0.73494511  0.39207351  0.66275551  1
  Tl  Tl3  1  0.24327504  0.88828367  0.66354206  1
  Ag  Ag4  1  0.00319195  0.15029883  0.31789334  1
  Ag  Ag5  1  0.47817243  0.63769128  0.32327946  1
  Ag  Ag6  1  0.74808080  0.89646393  0.82547564  1
  Te  Te7  1  0.00622725  0.15418658  0.98052816  1
  Te  Te8  1  0.48548679  0.64079573  -0.01422106  1
  Te  Te9  1  0.23644432  0.39130784  0.51229787  1
  Te  Te10  1  0.74145989  0.89275291  0.48514898  1
