# generated using pymatgen
data_K5MgAl2O6
_symmetry_space_group_name_H-M   'P 1'
_cell_length_a   3.42353733
_cell_length_b   6.29387647
_cell_length_c   12.00456949
_cell_angle_alpha   97.01208482
_cell_angle_beta   98.22280576
_cell_angle_gamma   90.62180803
_symmetry_Int_Tables_number   1
_chemical_formula_structural   K5MgAl2O6
_chemical_formula_sum   'K5 Mg1 Al2 O6'
_cell_volume   253.98667781
_cell_formula_units_Z   1
loop_
 _symmetry_equiv_pos_site_id
 _symmetry_equiv_pos_as_xyz
  1  'x, y, z'
loop_
 _atom_site_type_symbol
 _atom_site_label
 _atom_site_symmetry_multiplicity
 _atom_site_fract_x
 _atom_site_fract_y
 _atom_site_fract_z
 _atom_site_occupancy
  K  K0  1  0.72067995  0.13566486  0.64812030  1
  K  K1  1  0.86211484  0.91735068  0.93880672  1
  K  K2  1  0.34915436  0.37511178  0.89569909  1
  K  K3  1  0.50734527  0.06057830  0.20932943  1
  K  K4  1  0.60684348  0.50639954  0.44867988  1
  Mg  Mg5  1  0.10733192  -0.07138544  0.42908235  1
  Al  Al6  1  0.24212553  0.73736278  0.70726519  1
  Al  Al7  1  -0.02030742  0.55257918  0.15770788  1
  O  O8  1  0.17103638  0.77087443  0.56356819  1
  O  O9  1  0.94865379  0.30059214  0.08725694  1
  O  O10  1  0.60702416  0.08524419  0.42234262  1
  O  O11  1  0.75748333  0.60544319  0.74269896  1
  O  O12  1  0.29108688  0.98635045  0.79618100  1
  O  O13  1  0.02948393  0.69926301  0.28664075  1
