# generated using pymatgen
data_K5Tl2Bi
_symmetry_space_group_name_H-M   'P 1'
_cell_length_a   5.87431960
_cell_length_b   5.86843265
_cell_length_c   10.45760174
_cell_angle_alpha   104.43934242
_cell_angle_beta   104.63612779
_cell_angle_gamma   95.04192322
_symmetry_Int_Tables_number   1
_chemical_formula_structural   K5Tl2Bi
_chemical_formula_sum   'K5 Tl2 Bi1'
_cell_volume   333.38016322
_cell_formula_units_Z   1
loop_
 _symmetry_equiv_pos_site_id
 _symmetry_equiv_pos_as_xyz
  1  'x, y, z'
loop_
 _atom_site_type_symbol
 _atom_site_label
 _atom_site_symmetry_multiplicity
 _atom_site_fract_x
 _atom_site_fract_y
 _atom_site_fract_z
 _atom_site_occupancy
  K  K0  1  0.15692839  0.88513212  0.82926630  1
  K  K1  1  0.65391118  0.39539039  0.83078211  1
  K  K2  1  0.89284185  0.62228621  0.31042091  1
  K  K3  1  0.39459746  0.11190212  0.30902447  1
  K  K4  1  0.02347216  0.25467284  0.57039640  1
  Tl  Tl5  1  0.27199029  0.49307861  0.07444008  1
  Tl  Tl6  1  0.77648388  0.01392184  0.06440771  1
  Bi  Bi7  1  0.52580717  0.75370204  0.57034171  1
