# generated using pymatgen
data_KLi2CO4
_symmetry_space_group_name_H-M   'P 1'
_cell_length_a   4.86943063
_cell_length_b   4.85694360
_cell_length_c   6.08749290
_cell_angle_alpha   66.41589270
_cell_angle_beta   64.98289460
_cell_angle_gamma   59.94905823
_symmetry_Int_Tables_number   1
_chemical_formula_structural   KLi2CO4
_chemical_formula_sum   'K1 Li2 C1 O4'
_cell_volume   109.62495291
_cell_formula_units_Z   1
loop_
 _symmetry_equiv_pos_site_id
 _symmetry_equiv_pos_as_xyz
  1  'x, y, z'
loop_
 _atom_site_type_symbol
 _atom_site_label
 _atom_site_symmetry_multiplicity
 _atom_site_fract_x
 _atom_site_fract_y
 _atom_site_fract_z
 _atom_site_occupancy
  K  K0  1  0.32584266  0.23409005  0.24493810  1
  Li  Li1  1  0.53850146  0.42680324  0.63994274  1
  Li  Li2  1  0.77525792  0.66565036  0.92645815  1
  C  C3  1  0.14971345  0.04092062  0.80944650  1
  O  O4  1  0.40411010  0.05199449  0.81987495  1
  O  O5  1  0.65033045  0.54268862  0.28609788  1
  O  O6  1  0.88433169  0.30603369  0.79177260  1
  O  O7  1  0.16288298  0.76732373  0.81080377  1
