# generated using pymatgen
data_KMgSi2HAu
_symmetry_space_group_name_H-M   'P 1'
_cell_length_a   4.17817607
_cell_length_b   4.95188085
_cell_length_c   5.36203119
_cell_angle_alpha   89.99412719
_cell_angle_beta   89.99453278
_cell_angle_gamma   89.99709829
_symmetry_Int_Tables_number   1
_chemical_formula_structural   KMgSi2HAu
_chemical_formula_sum   'K1 Mg1 Si2 H1 Au1'
_cell_volume   110.93951288
_cell_formula_units_Z   1
loop_
 _symmetry_equiv_pos_site_id
 _symmetry_equiv_pos_as_xyz
  1  'x, y, z'
loop_
 _atom_site_type_symbol
 _atom_site_label
 _atom_site_symmetry_multiplicity
 _atom_site_fract_x
 _atom_site_fract_y
 _atom_site_fract_z
 _atom_site_occupancy
  K  K0  1  0.91686212  0.01444027  0.81361696  1
  Mg  Mg1  1  0.41422855  0.01353776  0.31350588  1
  Si  Si2  1  0.41717020  0.51468535  0.59358249  1
  Si  Si3  1  0.41709185  0.51306968  0.03408583  1
  H  H4  1  0.91348142  0.01431665  0.31487934  1
  Au  Au5  1  0.91769634  0.51451765  0.31423697  1
