# generated using pymatgen
data_KMgTlF4
_symmetry_space_group_name_H-M   'P 1'
_cell_length_a   4.07034888
_cell_length_b   4.07291986
_cell_length_c   7.44595382
_cell_angle_alpha   105.19566022
_cell_angle_beta   105.88114235
_cell_angle_gamma   90.02794544
_symmetry_Int_Tables_number   1
_chemical_formula_structural   KMgTlF4
_chemical_formula_sum   'K1 Mg1 Tl1 F4'
_cell_volume   114.23051416
_cell_formula_units_Z   1
loop_
 _symmetry_equiv_pos_site_id
 _symmetry_equiv_pos_as_xyz
  1  'x, y, z'
loop_
 _atom_site_type_symbol
 _atom_site_label
 _atom_site_symmetry_multiplicity
 _atom_site_fract_x
 _atom_site_fract_y
 _atom_site_fract_z
 _atom_site_occupancy
  K  K0  1  0.16842964  0.79976928  0.77262913  1
  Mg  Mg1  1  0.52294547  0.16024392  0.48183142  1
  Tl  Tl2  1  0.86808371  0.50473057  0.17528130  1
  F  F3  1  0.52510620  0.66268231  0.48603928  1
  F  F4  1  0.37473297  0.01893947  0.18578066  1
  F  F5  1  0.02529014  0.16429766  0.48632181  1
  F  F6  1  0.67063535  0.29996240  0.77429761  1
