# generated using pymatgen
data_KNaCl3
_symmetry_space_group_name_H-M   'P 1'
_cell_length_a   5.71626959
_cell_length_b   5.64407223
_cell_length_c   5.66999252
_cell_angle_alpha   56.08772122
_cell_angle_beta   89.36636906
_cell_angle_gamma   89.67837583
_symmetry_Int_Tables_number   1
_chemical_formula_structural   KNaCl3
_chemical_formula_sum   'K1 Na1 Cl3'
_cell_volume   151.80394591
_cell_formula_units_Z   1
loop_
 _symmetry_equiv_pos_site_id
 _symmetry_equiv_pos_as_xyz
  1  'x, y, z'
loop_
 _atom_site_type_symbol
 _atom_site_label
 _atom_site_symmetry_multiplicity
 _atom_site_fract_x
 _atom_site_fract_y
 _atom_site_fract_z
 _atom_site_occupancy
  K  K0  1  0.24126039  -0.07908666  0.06173249  1
  Na  Na1  1  0.74108645  0.61416002  0.73664394  1
  Cl  Cl2  1  0.74057423  0.60120965  0.24540158  1
  Cl  Cl3  1  0.24134388  0.60322006  0.73727254  1
  Cl  Cl4  1  0.74157611  0.10620650  0.74396463  1
