# generated using pymatgen
data_KNaTlF3
_symmetry_space_group_name_H-M   'P 1'
_cell_length_a   3.86192526
_cell_length_b   5.50440268
_cell_length_c   5.58107810
_cell_angle_alpha   74.34160736
_cell_angle_beta   89.13546357
_cell_angle_gamma   69.60684923
_symmetry_Int_Tables_number   1
_chemical_formula_structural   KNaTlF3
_chemical_formula_sum   'K1 Na1 Tl1 F3'
_cell_volume   106.66674296
_cell_formula_units_Z   1
loop_
 _symmetry_equiv_pos_site_id
 _symmetry_equiv_pos_as_xyz
  1  'x, y, z'
loop_
 _atom_site_type_symbol
 _atom_site_label
 _atom_site_symmetry_multiplicity
 _atom_site_fract_x
 _atom_site_fract_y
 _atom_site_fract_z
 _atom_site_occupancy
  K  K0  1  0.13934739  0.08708634  0.81256107  1
  Na  Na1  1  0.46635414  0.43345299  0.11014341  1
  Tl  Tl2  1  0.79951143  0.76778334  0.45476654  1
  F  F3  1  0.80860070  0.73914543  0.00324568  1
  F  F4  1  0.09612082  0.17007295  0.27990655  1
  F  F5  1  0.46671799  0.43174726  0.69761939  1
