# generated using pymatgen
data_KNdTlBi
_symmetry_space_group_name_H-M   'P 1'
_cell_length_a   5.18632339
_cell_length_b   6.04760128
_cell_length_c   5.20075847
_cell_angle_alpha   64.55008977
_cell_angle_beta   90.01306174
_cell_angle_gamma   64.70147492
_symmetry_Int_Tables_number   1
_chemical_formula_structural   KNdTlBi
_chemical_formula_sum   'K1 Nd1 Tl1 Bi1'
_cell_volume   129.74419030
_cell_formula_units_Z   1
loop_
 _symmetry_equiv_pos_site_id
 _symmetry_equiv_pos_as_xyz
  1  'x, y, z'
loop_
 _atom_site_type_symbol
 _atom_site_label
 _atom_site_symmetry_multiplicity
 _atom_site_fract_x
 _atom_site_fract_y
 _atom_site_fract_z
 _atom_site_occupancy
  K  K0  1  0.09259791  0.48658582  0.84491429  1
  Nd  Nd1  1  0.59203365  0.48574247  0.34567651  1
  Tl  Tl2  1  0.84462573  0.98596095  0.09612480  1
  Bi  Bi3  1  0.34121271  0.98655893  0.59548822  1
