# generated using pymatgen
data_KRb2Dy2Al2O7
_symmetry_space_group_name_H-M   'P 1'
_cell_length_a   6.08287912
_cell_length_b   6.78973167
_cell_length_c   8.29323303
_cell_angle_alpha   67.98610472
_cell_angle_beta   68.36122765
_cell_angle_gamma   63.39840663
_symmetry_Int_Tables_number   1
_chemical_formula_structural   KRb2Dy2Al2O7
_chemical_formula_sum   'K1 Rb2 Dy2 Al2 O7'
_cell_volume   275.46715541
_cell_formula_units_Z   1
loop_
 _symmetry_equiv_pos_site_id
 _symmetry_equiv_pos_as_xyz
  1  'x, y, z'
loop_
 _atom_site_type_symbol
 _atom_site_label
 _atom_site_symmetry_multiplicity
 _atom_site_fract_x
 _atom_site_fract_y
 _atom_site_fract_z
 _atom_site_occupancy
  K  K0  1  0.10339325  0.63276792  0.12729985  1
  Rb  Rb1  1  0.74093720  0.80391057  0.68254483  1
  Rb  Rb2  1  0.41720865  0.46031787  0.67064884  1
  Dy  Dy3  1  0.40481481  -0.01317177  0.16979503  1
  Dy  Dy4  1  0.74192847  0.27106486  0.21165543  1
  Al  Al5  1  0.15400320  0.13155882  0.52642347  1
  Al  Al6  1  0.98572112  0.14310674  0.85270591  1
  O  O7  1  0.45957825  0.10981605  0.37970771  1
  O  O8  1  0.98485446  0.35525093  0.64173682  1
  O  O9  1  0.01632105  0.10945781  0.38051278  1
  O  O10  1  0.58007620  0.63364009  0.17110429  1
  O  O11  1  0.12760245  0.15820387  0.00029037  1
  O  O12  1  0.15556619  0.91449412  0.74083398  1
  O  O13  1  0.68101693  0.15824008  0.00092812  1
