# generated using pymatgen
data_KRbGaCl5
_symmetry_space_group_name_H-M   'P 1'
_cell_length_a   7.27533296
_cell_length_b   7.50266766
_cell_length_c   7.36826159
_cell_angle_alpha   124.06501402
_cell_angle_beta   81.56855254
_cell_angle_gamma   123.99385383
_symmetry_Int_Tables_number   1
_chemical_formula_structural   KRbGaCl5
_chemical_formula_sum   'K1 Rb1 Ga1 Cl5'
_cell_volume   267.99185413
_cell_formula_units_Z   1
loop_
 _symmetry_equiv_pos_site_id
 _symmetry_equiv_pos_as_xyz
  1  'x, y, z'
loop_
 _atom_site_type_symbol
 _atom_site_label
 _atom_site_symmetry_multiplicity
 _atom_site_fract_x
 _atom_site_fract_y
 _atom_site_fract_z
 _atom_site_occupancy
  K  K0  1  0.09737216  0.52915308  0.13832078  1
  Rb  Rb1  1  0.59825463  0.54018520  0.64192702  1
  Ga  Ga2  1  0.31448387  0.03863090  0.91935570  1
  Cl  Cl3  1  0.63145831  0.43756753  0.02811992  1
  Cl  Cl4  1  0.52630091  0.00990531  0.12376175  1
  Cl  Cl5  1  0.07674579  0.04398878  0.14592596  1
  Cl  Cl6  1  0.20492195  0.63709436  0.61069143  1
  Cl  Cl7  1  0.11999435  0.06602340  0.69543632  1
