# generated using pymatgen
data_KTe
_symmetry_space_group_name_H-M   'P 1'
_cell_length_a   3.72575821
_cell_length_b   3.70084435
_cell_length_c   5.02069415
_cell_angle_alpha   89.87543479
_cell_angle_beta   89.86418083
_cell_angle_gamma   89.43440122
_symmetry_Int_Tables_number   1
_chemical_formula_structural   KTe
_chemical_formula_sum   'K1 Te1'
_cell_volume   69.22386872
_cell_formula_units_Z   1
loop_
 _symmetry_equiv_pos_site_id
 _symmetry_equiv_pos_as_xyz
  1  'x, y, z'
loop_
 _atom_site_type_symbol
 _atom_site_label
 _atom_site_symmetry_multiplicity
 _atom_site_fract_x
 _atom_site_fract_y
 _atom_site_fract_z
 _atom_site_occupancy
  K  K0  1  0.93269702  0.83369226  0.04306228  1
  Te  Te1  1  0.43338737  0.33391547  0.54313995  1
