# generated using pymatgen
data_KTlAuCl5
_symmetry_space_group_name_H-M   'P 1'
_cell_length_a   4.45970943
_cell_length_b   6.49997686
_cell_length_c   11.13928090
_cell_angle_alpha   116.96711128
_cell_angle_beta   99.08890430
_cell_angle_gamma   98.20400685
_symmetry_Int_Tables_number   1
_chemical_formula_structural   KTlAuCl5
_chemical_formula_sum   'K1 Tl1 Au1 Cl5'
_cell_volume   275.62525083
_cell_formula_units_Z   1
loop_
 _symmetry_equiv_pos_site_id
 _symmetry_equiv_pos_as_xyz
  1  'x, y, z'
loop_
 _atom_site_type_symbol
 _atom_site_label
 _atom_site_symmetry_multiplicity
 _atom_site_fract_x
 _atom_site_fract_y
 _atom_site_fract_z
 _atom_site_occupancy
  K  K0  1  0.94230945  0.80976228  0.00046440  1
  Tl  Tl1  1  0.21201904  0.31734611  0.43219787  1
  Au  Au2  1  0.09849896  0.09044768  0.73126927  1
  Cl  Cl3  1  0.59103347  0.07648467  0.22120136  1
  Cl  Cl4  1  0.27022096  0.38094707  0.96353661  1
  Cl  Cl5  1  0.80622095  0.32199985  0.68193792  1
  Cl  Cl6  1  0.93576408  0.80572113  0.49814430  1
  Cl  Cl7  1  0.38040384  0.85310232  0.78078825  1
