# generated using pymatgen
data_KWSe2
_symmetry_space_group_name_H-M   'P 1'
_cell_length_a   3.99949979
_cell_length_b   3.99923374
_cell_length_c   7.65040484
_cell_angle_alpha   74.85360598
_cell_angle_beta   74.84630529
_cell_angle_gamma   59.99608547
_symmetry_Int_Tables_number   1
_chemical_formula_structural   KWSe2
_chemical_formula_sum   'K1 W1 Se2'
_cell_volume   101.02908510
_cell_formula_units_Z   1
loop_
 _symmetry_equiv_pos_site_id
 _symmetry_equiv_pos_as_xyz
  1  'x, y, z'
loop_
 _atom_site_type_symbol
 _atom_site_label
 _atom_site_symmetry_multiplicity
 _atom_site_fract_x
 _atom_site_fract_y
 _atom_site_fract_z
 _atom_site_occupancy
  K  K0  1  0.22887348  0.82448753  0.73742472  1
  W  W1  1  0.72969517  0.32383381  0.23708886  1
  Se  Se2  1  0.00203708  0.59708494  0.41849810  1
  Se  Se3  1  0.45623220  0.05130761  0.05571870  1
