# generated using pymatgen
data_La2Mg2ZnSn3SbPd
_symmetry_space_group_name_H-M   'P 1'
_cell_length_a   4.79713093
_cell_length_b   6.20736765
_cell_length_c   8.81413679
_cell_angle_alpha   90.62404465
_cell_angle_beta   91.94920975
_cell_angle_gamma   77.50200671
_symmetry_Int_Tables_number   1
_chemical_formula_structural   La2Mg2ZnSn3SbPd
_chemical_formula_sum   'La2 Mg2 Zn1 Sn3 Sb1 Pd1'
_cell_volume   256.09405706
_cell_formula_units_Z   1
loop_
 _symmetry_equiv_pos_site_id
 _symmetry_equiv_pos_as_xyz
  1  'x, y, z'
loop_
 _atom_site_type_symbol
 _atom_site_label
 _atom_site_symmetry_multiplicity
 _atom_site_fract_x
 _atom_site_fract_y
 _atom_site_fract_z
 _atom_site_occupancy
  La  La0  1  0.07627350  0.51141854  0.35863966  1
  La  La1  1  0.10188606  0.30706710  0.86221616  1
  Mg  Mg2  1  0.49616950  0.95396048  0.25660838  1
  Mg  Mg3  1  0.51687082  0.75467569  0.90820290  1
  Zn  Zn4  1  0.59667412  0.11611519  0.63348106  1
  Sn  Sn5  1  0.55717922  0.57442101  0.61294065  1
  Sn  Sn6  1  -0.00196139  0.87351710  0.06774959  1
  Sn  Sn7  1  0.11265492  0.01199527  0.50514902  1
  Sb  Sb8  1  0.60000065  0.36637545  0.11960854  1
  Pd  Pd9  1  0.99326288  0.77918524  0.74840488  1
