# generated using pymatgen
data_LaPuIN
_symmetry_space_group_name_H-M   'P 1'
_cell_length_a   3.65849766
_cell_length_b   3.65518562
_cell_length_c   8.02068730
_cell_angle_alpha   76.29558670
_cell_angle_beta   76.27127567
_cell_angle_gamma   60.79272017
_symmetry_Int_Tables_number   1
_chemical_formula_structural   LaPuIN
_chemical_formula_sum   'La1 Pu1 I1 N1'
_cell_volume   90.01287348
_cell_formula_units_Z   1
loop_
 _symmetry_equiv_pos_site_id
 _symmetry_equiv_pos_as_xyz
  1  'x, y, z'
loop_
 _atom_site_type_symbol
 _atom_site_label
 _atom_site_symmetry_multiplicity
 _atom_site_fract_x
 _atom_site_fract_y
 _atom_site_fract_z
 _atom_site_occupancy
  La  La0  1  0.01929929  0.85747281  0.75164331  1
  Pu  Pu1  1  0.25077107  0.09223219  0.09766339  1
  I  I2  1  0.80463743  0.64707592  0.40039577  1
  N  N3  1  0.61001229  0.44766979  0.96706557  1
