# generated using pymatgen
data_LaYThFeS4
_symmetry_space_group_name_H-M   'P 1'
_cell_length_a   4.96565724
_cell_length_b   5.85970833
_cell_length_c   5.89206689
_cell_angle_alpha   72.19718099
_cell_angle_beta   90.14967380
_cell_angle_gamma   89.74037478
_symmetry_Int_Tables_number   1
_chemical_formula_structural   LaYThFeS4
_chemical_formula_sum   'La1 Y1 Th1 Fe1 S4'
_cell_volume   163.23047008
_cell_formula_units_Z   1
loop_
 _symmetry_equiv_pos_site_id
 _symmetry_equiv_pos_as_xyz
  1  'x, y, z'
loop_
 _atom_site_type_symbol
 _atom_site_label
 _atom_site_symmetry_multiplicity
 _atom_site_fract_x
 _atom_site_fract_y
 _atom_site_fract_z
 _atom_site_occupancy
  La  La0  1  0.11717408  0.68013440  0.94024883  1
  Y  Y1  1  0.11602278  0.24560435  0.50613884  1
  Th  Th2  1  0.61750650  0.97077156  0.22673690  1
  Fe  Fe3  1  0.61448472  0.43784843  0.68530787  1
  S  S4  1  0.61807504  0.46516247  0.24779602  1
  S  S5  1  0.11631928  0.17667126  0.99844745  1
  S  S6  1  0.11996162  0.74107579  0.43770095  1
  S  S7  1  0.61682901  0.98809140  0.72258788  1
