# generated using pymatgen
data_Li2HgSBrCl2
_symmetry_space_group_name_H-M   'P 1'
_cell_length_a   4.29008443
_cell_length_b   6.16217695
_cell_length_c   6.85666460
_cell_angle_alpha   100.30892665
_cell_angle_beta   88.80968091
_cell_angle_gamma   95.94419963
_symmetry_Int_Tables_number   1
_chemical_formula_structural   Li2HgSBrCl2
_chemical_formula_sum   'Li2 Hg1 S1 Br1 Cl2'
_cell_volume   177.37908956
_cell_formula_units_Z   1
loop_
 _symmetry_equiv_pos_site_id
 _symmetry_equiv_pos_as_xyz
  1  'x, y, z'
loop_
 _atom_site_type_symbol
 _atom_site_label
 _atom_site_symmetry_multiplicity
 _atom_site_fract_x
 _atom_site_fract_y
 _atom_site_fract_z
 _atom_site_occupancy
  Li  Li0  1  0.91764552  0.80253341  0.76212261  1
  Li  Li1  1  0.45664553  0.30254467  0.75484993  1
  Hg  Hg2  1  0.36157149  0.80398740  0.27737374  1
  S  S3  1  0.84668275  0.66531437  0.39022500  1
  Br  Br4  1  0.56401896  0.25289264  0.34714856  1
  Cl  Cl5  1  0.94210110  0.17820029  0.81479644  1
  Cl  Cl6  1  0.40592422  0.69233506  0.86683118  1
