# generated using pymatgen
data_Li2La2AlTlPdAu
_symmetry_space_group_name_H-M   'P 1'
_cell_length_a   5.41216525
_cell_length_b   6.77570402
_cell_length_c   5.84835354
_cell_angle_alpha   78.22111911
_cell_angle_beta   61.60275437
_cell_angle_gamma   77.61062834
_symmetry_Int_Tables_number   1
_chemical_formula_structural   Li2La2AlTlPdAu
_chemical_formula_sum   'Li2 La2 Al1 Tl1 Pd1 Au1'
_cell_volume   182.96079806
_cell_formula_units_Z   1
loop_
 _symmetry_equiv_pos_site_id
 _symmetry_equiv_pos_as_xyz
  1  'x, y, z'
loop_
 _atom_site_type_symbol
 _atom_site_label
 _atom_site_symmetry_multiplicity
 _atom_site_fract_x
 _atom_site_fract_y
 _atom_site_fract_z
 _atom_site_occupancy
  Li  Li0  1  0.88079790  0.84132786  0.71594900  1
  Li  Li1  1  0.78737730  0.48849091  0.08955989  1
  La  La2  1  0.55486187  0.93438253  0.33981910  1
  La  La3  1  0.48247092  0.37216378  0.77180572  1
  Al  Al4  1  0.26306292  0.84953044  0.97357946  1
  Tl  Tl5  1  0.13922718  0.53574952  0.39880373  1
  Pd  Pd6  1  0.01725949  0.16448311  0.79424644  1
  Au  Au7  1  0.01409298  0.15061813  0.29764148  1
