# generated using pymatgen
data_Li2PrPu2Th2MgSiPd2Au
_symmetry_space_group_name_H-M   'P 1'
_cell_length_a   4.19796822
_cell_length_b   8.46173579
_cell_length_c   8.79173433
_cell_angle_alpha   116.52137067
_cell_angle_beta   90.01200798
_cell_angle_gamma   89.98894278
_symmetry_Int_Tables_number   1
_chemical_formula_structural   Li2PrPu2Th2MgSiPd2Au
_chemical_formula_sum   'Li2 Pr1 Pu2 Th2 Mg1 Si1 Pd2 Au1'
_cell_volume   279.43675718
_cell_formula_units_Z   1
loop_
 _symmetry_equiv_pos_site_id
 _symmetry_equiv_pos_as_xyz
  1  'x, y, z'
loop_
 _atom_site_type_symbol
 _atom_site_label
 _atom_site_symmetry_multiplicity
 _atom_site_fract_x
 _atom_site_fract_y
 _atom_site_fract_z
 _atom_site_occupancy
  Li  Li0  1  0.48212677  0.08708381  0.22924562  1
  Li  Li1  1  0.48197687  0.54426983  0.22162425  1
  Pr  Pr2  1  0.48211336  0.63672101  0.88415026  1
  Pu  Pu3  1  0.98191838  0.82195478  0.22718449  1
  Pu  Pu4  1  0.98191355  0.24563009  0.60229256  1
  Th  Th5  1  0.98175434  0.74079149  0.57900037  1
  Th  Th6  1  0.48195167  0.14641277  0.87632896  1
  Mg  Mg7  1  0.98194429  0.31172020  0.23108723  1
  Si  Si8  1  0.98224499  0.44342969  0.98921697  1
  Pd  Pd9  1  0.48178874  0.93560728  0.49116979  1
  Pd  Pd10  1  0.98199452  0.95883529  0.97211943  1
  Au  Au11  1  0.48178767  0.43262351  0.47080453  1
