# generated using pymatgen
data_Li2SnAuO4
_symmetry_space_group_name_H-M   'P 1'
_cell_length_a   4.38881056
_cell_length_b   4.61566299
_cell_length_c   5.70593299
_cell_angle_alpha   91.64261620
_cell_angle_beta   110.67030944
_cell_angle_gamma   95.08336992
_symmetry_Int_Tables_number   1
_chemical_formula_structural   Li2SnAuO4
_chemical_formula_sum   'Li2 Sn1 Au1 O4'
_cell_volume   107.49757428
_cell_formula_units_Z   1
loop_
 _symmetry_equiv_pos_site_id
 _symmetry_equiv_pos_as_xyz
  1  'x, y, z'
loop_
 _atom_site_type_symbol
 _atom_site_label
 _atom_site_symmetry_multiplicity
 _atom_site_fract_x
 _atom_site_fract_y
 _atom_site_fract_z
 _atom_site_occupancy
  Li  Li0  1  0.46319343  0.78897553  0.54351442  1
  Li  Li1  1  0.68301344  0.30690426  1.00108666  1
  Sn  Sn2  1  0.96251128  0.29268933  0.53278284  1
  Au  Au3  1  0.19160216  0.79803540  0.02288897  1
  O  O4  1  0.09946714  0.52353760  0.29038322  1
  O  O5  1  0.79627229  0.54259283  0.75298610  1
  O  O6  1  0.59201292  0.02570111  0.30237660  1
  O  O7  1  0.30969013  0.06005348  0.75762075  1
