# generated using pymatgen
data_Li2TlSbS4
_symmetry_space_group_name_H-M   'P 1'
_cell_length_a   6.45634367
_cell_length_b   6.45186718
_cell_length_c   6.75170057
_cell_angle_alpha   58.50833732
_cell_angle_beta   58.44984996
_cell_angle_gamma   63.08005920
_symmetry_Int_Tables_number   1
_chemical_formula_structural   Li2TlSbS4
_chemical_formula_sum   'Li2 Tl1 Sb1 S4'
_cell_volume   198.04523215
_cell_formula_units_Z   1
loop_
 _symmetry_equiv_pos_site_id
 _symmetry_equiv_pos_as_xyz
  1  'x, y, z'
loop_
 _atom_site_type_symbol
 _atom_site_label
 _atom_site_symmetry_multiplicity
 _atom_site_fract_x
 _atom_site_fract_y
 _atom_site_fract_z
 _atom_site_occupancy
  Li  Li0  1  0.69941207  0.96235534  0.97671740  1
  Li  Li1  1  0.20023871  0.46196035  0.47586948  1
  Tl  Tl2  1  0.95183374  0.21355744  0.22450507  1
  Sb  Sb3  1  0.45148734  0.71347906  0.72481281  1
  S  S4  1  0.81199591  0.67141632  0.76732546  1
  S  S5  1  0.40791524  0.07402748  0.36444818  1
  S  S6  1  0.09056311  0.75811248  0.08515249  1
  S  S7  1  0.49625365  0.35281366  0.68011842  1
