# generated using pymatgen
data_Li3Fe4Si
_symmetry_space_group_name_H-M   'P 1'
_cell_length_a   3.81012315
_cell_length_b   3.72957997
_cell_length_c   6.50601152
_cell_angle_alpha   89.98938234
_cell_angle_beta   90.02635556
_cell_angle_gamma   90.32969003
_symmetry_Int_Tables_number   1
_chemical_formula_structural   Li3Fe4Si
_chemical_formula_sum   'Li3 Fe4 Si1'
_cell_volume   92.44991601
_cell_formula_units_Z   1
loop_
 _symmetry_equiv_pos_site_id
 _symmetry_equiv_pos_as_xyz
  1  'x, y, z'
loop_
 _atom_site_type_symbol
 _atom_site_label
 _atom_site_symmetry_multiplicity
 _atom_site_fract_x
 _atom_site_fract_y
 _atom_site_fract_z
 _atom_site_occupancy
  Li  Li0  1  0.14504726  0.29376406  0.12401841  1
  Li  Li1  1  0.14537856  0.79288790  0.88189978  1
  Li  Li2  1  0.64527781  0.79298146  0.63227742  1
  Fe  Fe3  1  0.14518480  0.29316431  0.62512020  1
  Fe  Fe4  1  0.64502137  0.29282241  0.88280469  1
  Fe  Fe5  1  0.14485396  0.79364251  0.37628894  1
  Fe  Fe6  1  0.64496454  0.29388380  0.37656980  1
  Si  Si7  1  0.64497257  0.79364606  0.13757629  1
