# generated using pymatgen
data_Li3GeS3Cl
_symmetry_space_group_name_H-M   'P 1'
_cell_length_a   3.76296920
_cell_length_b   6.25802027
_cell_length_c   6.98229526
_cell_angle_alpha   89.71834840
_cell_angle_beta   89.99659106
_cell_angle_gamma   89.91309673
_symmetry_Int_Tables_number   1
_chemical_formula_structural   Li3GeS3Cl
_chemical_formula_sum   'Li3 Ge1 S3 Cl1'
_cell_volume   164.42206232
_cell_formula_units_Z   1
loop_
 _symmetry_equiv_pos_site_id
 _symmetry_equiv_pos_as_xyz
  1  'x, y, z'
loop_
 _atom_site_type_symbol
 _atom_site_label
 _atom_site_symmetry_multiplicity
 _atom_site_fract_x
 _atom_site_fract_y
 _atom_site_fract_z
 _atom_site_occupancy
  Li  Li0  1  0.61015720  0.48934946  0.70411323  1
  Li  Li1  1  0.10883964  0.47541058  0.19990794  1
  Li  Li2  1  0.60899832  -0.05870139  0.35125078  1
  Ge  Ge3  1  0.10891107  -0.04692310  0.89072220  1
  S  S4  1  0.10840253  0.08706299  0.17826260  1
  S  S5  1  0.60892818  0.08258730  0.71576879  1
  S  S6  1  0.10941555  0.60598014  0.87904182  1
  Cl  Cl7  1  0.60887773  0.57051553  0.38025314  1
