# generated using pymatgen
data_Li4ThRh3
_symmetry_space_group_name_H-M   'P 1'
_cell_length_a   3.64557374
_cell_length_b   3.66091581
_cell_length_c   10.22939259
_cell_angle_alpha   90.05100313
_cell_angle_beta   89.93138592
_cell_angle_gamma   89.98872467
_symmetry_Int_Tables_number   1
_chemical_formula_structural   Li4ThRh3
_chemical_formula_sum   'Li4 Th1 Rh3'
_cell_volume   136.52273578
_cell_formula_units_Z   1
loop_
 _symmetry_equiv_pos_site_id
 _symmetry_equiv_pos_as_xyz
  1  'x, y, z'
loop_
 _atom_site_type_symbol
 _atom_site_label
 _atom_site_symmetry_multiplicity
 _atom_site_fract_x
 _atom_site_fract_y
 _atom_site_fract_z
 _atom_site_occupancy
  Li  Li0  1  0.42988841  0.31496462  0.75571529  1
  Li  Li1  1  0.42686699  0.31377231  0.09550431  1
  Li  Li2  1  0.92858719  0.81493839  0.75328920  1
  Li  Li3  1  0.92728211  0.81403164  0.09795108  1
  Th  Th4  1  0.42895065  0.81451391  0.42566138  1
  Rh  Rh5  1  0.92971594  0.31550175  0.56322384  1
  Rh  Rh6  1  0.92561945  0.31379033  0.28782760  1
  Rh  Rh7  1  0.42916793  0.81411508  0.92557099  1
