# generated using pymatgen
data_Li5MgAlSnN4
_symmetry_space_group_name_H-M   'P 1'
_cell_length_a   6.12160059
_cell_length_b   5.24504863
_cell_length_c   5.41587639
_cell_angle_alpha   77.16771344
_cell_angle_beta   85.14104040
_cell_angle_gamma   121.57722889
_symmetry_Int_Tables_number   1
_chemical_formula_structural   Li5MgAlSnN4
_chemical_formula_sum   'Li5 Mg1 Al1 Sn1 N4'
_cell_volume   140.15307659
_cell_formula_units_Z   1
loop_
 _symmetry_equiv_pos_site_id
 _symmetry_equiv_pos_as_xyz
  1  'x, y, z'
loop_
 _atom_site_type_symbol
 _atom_site_label
 _atom_site_symmetry_multiplicity
 _atom_site_fract_x
 _atom_site_fract_y
 _atom_site_fract_z
 _atom_site_occupancy
  Li  Li0  1  0.66971776  0.03140101  0.08840523  1
  Li  Li1  1  0.17088913  0.78240815  0.69966183  1
  Li  Li2  1  0.21966809  0.85561751  0.16147867  1
  Li  Li3  1  0.69655266  0.50053520  -0.01684883  1
  Li  Li4  1  0.21758737  0.23903480  0.79410986  1
  Mg  Mg5  1  0.69288342  0.54895664  0.50752907  1
  Al  Al6  1  0.65081668  0.01429186  0.58324429  1
  Sn  Sn7  1  0.16991317  0.31535668  0.29976044  1
  N  N8  1  0.48914241  0.11508826  0.81309948  1
  N  N9  1  0.41096319  0.67956136  0.45984948  1
  N  N10  1  0.85800817  0.39408515  0.26906768  1
  N  N11  1  0.90463991  0.91952514  0.66847440  1
