# generated using pymatgen
data_Li5Ti2O7
_symmetry_space_group_name_H-M   'P 1'
_cell_length_a   4.99450790
_cell_length_b   5.30321218
_cell_length_c   7.85171975
_cell_angle_alpha   73.72033029
_cell_angle_beta   72.15414153
_cell_angle_gamma   61.48003375
_symmetry_Int_Tables_number   1
_chemical_formula_structural   Li5Ti2O7
_chemical_formula_sum   'Li5 Ti2 O7'
_cell_volume   171.69196790
_cell_formula_units_Z   1
loop_
 _symmetry_equiv_pos_site_id
 _symmetry_equiv_pos_as_xyz
  1  'x, y, z'
loop_
 _atom_site_type_symbol
 _atom_site_label
 _atom_site_symmetry_multiplicity
 _atom_site_fract_x
 _atom_site_fract_y
 _atom_site_fract_z
 _atom_site_occupancy
  Li  Li0  1  0.78795771  0.60733018  0.77911545  1
  Li  Li1  1  0.70796758  0.03666685  0.41685191  1
  Li  Li2  1  0.06644998  0.42610916  0.36910089  1
  Li  Li3  1  0.65875130  0.51614077  0.13292214  1
  Li  Li4  1  0.34511077  0.17060190  0.08457697  1
  Ti  Ti5  1  0.35325348  0.70331714  0.50488246  1
  Ti  Ti6  1  0.07028901  0.86675211  0.94531317  1
  O  O7  1  0.98302071  0.22752894  0.97899861  1
  O  O8  1  0.70381259  0.86292495  0.95421770  1
  O  O9  1  0.67528872  0.40724916  0.39457715  1
  O  O10  1  0.99335444  0.68285907  0.52830926  1
  O  O11  1  0.37275466  0.02266170  0.34871219  1
  O  O12  1  0.36786476  0.73577751  0.73487309  1
  O  O13  1  0.23305935  0.58170600  0.12467753  1
