# generated using pymatgen
data_Li5TbTa2O8
_symmetry_space_group_name_H-M   'P 1'
_cell_length_a   5.37546528
_cell_length_b   5.44318673
_cell_length_c   6.02369056
_cell_angle_alpha   107.41311129
_cell_angle_beta   89.60664921
_cell_angle_gamma   87.12562147
_symmetry_Int_Tables_number   1
_chemical_formula_structural   Li5TbTa2O8
_chemical_formula_sum   'Li5 Tb1 Ta2 O8'
_cell_volume   167.91805859
_cell_formula_units_Z   1
loop_
 _symmetry_equiv_pos_site_id
 _symmetry_equiv_pos_as_xyz
  1  'x, y, z'
loop_
 _atom_site_type_symbol
 _atom_site_label
 _atom_site_symmetry_multiplicity
 _atom_site_fract_x
 _atom_site_fract_y
 _atom_site_fract_z
 _atom_site_occupancy
  Li  Li0  1  0.10323720  0.52211491  0.93302952  1
  Li  Li1  1  0.79047378  0.10415222  0.81112554  1
  Li  Li2  1  0.85829614  0.00770821  0.30648562  1
  Li  Li3  1  0.32883161  0.05182478  0.55672652  1
  Li  Li4  1  0.54384441  0.58886020  0.18214886  1
  Tb  Tb5  1  0.32354537  0.05570645  0.05790203  1
  Ta  Ta6  1  0.03643397  0.56428958  0.44292921  1
  Ta  Ta7  1  0.61012297  0.54690387  0.67293368  1
  O  O8  1  0.18616586  0.79781656  0.25552169  1
  O  O9  1  0.68433504  0.80422205  0.96721768  1
  O  O10  1  0.93322950  0.31306885  0.63546353  1
  O  O11  1  0.41838537  0.34428797  0.39704140  1
  O  O12  1  0.96244428  0.30694974  0.14854589  1
  O  O13  1  0.22820079  0.76694101  0.71879100  1
  O  O14  1  0.71281617  0.79879930  0.48043592  1
  O  O15  1  0.46158503  0.31285061  0.86010881  1
