# generated using pymatgen
data_Li6CuF8
_symmetry_space_group_name_H-M   'P 1'
_cell_length_a   4.03325340
_cell_length_b   4.97296400
_cell_length_c   7.89210742
_cell_angle_alpha   89.22103566
_cell_angle_beta   75.26932351
_cell_angle_gamma   67.24857767
_symmetry_Int_Tables_number   1
_chemical_formula_structural   Li6CuF8
_chemical_formula_sum   'Li6 Cu1 F8'
_cell_volume   140.54041601
_cell_formula_units_Z   1
loop_
 _symmetry_equiv_pos_site_id
 _symmetry_equiv_pos_as_xyz
  1  'x, y, z'
loop_
 _atom_site_type_symbol
 _atom_site_label
 _atom_site_symmetry_multiplicity
 _atom_site_fract_x
 _atom_site_fract_y
 _atom_site_fract_z
 _atom_site_occupancy
  Li  Li0  1  0.56551263  0.19411433  0.07275199  1
  Li  Li1  1  0.79742256  0.42417339  0.37032169  1
  Li  Li2  1  0.06447796  0.67860023  0.58990894  1
  Li  Li3  1  0.93750767  0.57371607  0.94853494  1
  Li  Li4  1  0.33477414  -0.06816101  0.79657122  1
  Li  Li5  1  0.70381194  0.29008896  0.69916860  1
  Cu  Cu6  1  0.17048328  0.83155735  0.22635675  1
  F  F7  1  0.05127139  0.18843945  0.10711284  1
  F  F8  1  0.16616822  0.32551411  0.73758545  1
  F  F9  1  0.70025003  0.80734596  0.18898981  1
  F  F10  1  0.57493895  0.65294186  0.59493504  1
  F  F11  1  0.29576676  0.46929816  0.33378593  1
  F  F12  1  0.43026807  0.56667094  0.96931819  1
  F  F13  1  -0.06556896  0.05756255  0.46965453  1
  F  F14  1  0.80853924  -0.05682923  0.83619507  1
