# generated using pymatgen
data_LiAg2SBr
_symmetry_space_group_name_H-M   'P 1'
_cell_length_a   4.84995108
_cell_length_b   4.84985233
_cell_length_c   4.85590559
_cell_angle_alpha   89.42190214
_cell_angle_beta   90.41155382
_cell_angle_gamma   88.86601300
_symmetry_Int_Tables_number   1
_chemical_formula_structural   LiAg2SBr
_chemical_formula_sum   'Li1 Ag2 S1 Br1'
_cell_volume   114.18711349
_cell_formula_units_Z   1
loop_
 _symmetry_equiv_pos_site_id
 _symmetry_equiv_pos_as_xyz
  1  'x, y, z'
loop_
 _atom_site_type_symbol
 _atom_site_label
 _atom_site_symmetry_multiplicity
 _atom_site_fract_x
 _atom_site_fract_y
 _atom_site_fract_z
 _atom_site_occupancy
  Li  Li0  1  0.61551650  0.92974053  0.91755231  1
  Ag  Ag1  1  0.12061951  0.93597534  0.41697613  1
  Ag  Ag2  1  0.11515512  0.43528984  0.90988305  1
  S  S3  1  0.11619228  0.93475551  0.91732016  1
  Br  Br4  1  0.61908822  0.42848925  0.41732536  1
