# generated using pymatgen
data_LiAlZnCrHgP2
_symmetry_space_group_name_H-M   'P 1'
_cell_length_a   3.62170041
_cell_length_b   5.38769485
_cell_length_c   6.81686623
_cell_angle_alpha   99.54208053
_cell_angle_beta   88.16951008
_cell_angle_gamma   89.21626543
_symmetry_Int_Tables_number   1
_chemical_formula_structural   LiAlZnCrHgP2
_chemical_formula_sum   'Li1 Al1 Zn1 Cr1 Hg1 P2'
_cell_volume   131.08328826
_cell_formula_units_Z   1
loop_
 _symmetry_equiv_pos_site_id
 _symmetry_equiv_pos_as_xyz
  1  'x, y, z'
loop_
 _atom_site_type_symbol
 _atom_site_label
 _atom_site_symmetry_multiplicity
 _atom_site_fract_x
 _atom_site_fract_y
 _atom_site_fract_z
 _atom_site_occupancy
  Li  Li0  1  0.28173792  0.55061519  0.42209438  1
  Al  Al1  1  0.39296762  0.55547651  0.83086290  1
  Zn  Zn2  1  0.39083863  0.10786206  0.63278228  1
  Cr  Cr3  1  0.87190452  0.79489809  0.10060064  1
  Hg  Hg4  1  0.86067738  0.29868999  0.08497691  1
  P  P5  1  0.35879545  0.96256384  0.27953521  1
  P  P6  1  0.89135500  0.82315288  0.75238667  1
