# generated using pymatgen
data_LiCaSnGeSNO
_symmetry_space_group_name_H-M   'P 1'
_cell_length_a   5.11608359
_cell_length_b   5.46062616
_cell_length_c   5.97065346
_cell_angle_alpha   57.90899056
_cell_angle_beta   62.88057081
_cell_angle_gamma   66.60647548
_symmetry_Int_Tables_number   1
_chemical_formula_structural   LiCaSnGeSNO
_chemical_formula_sum   'Li1 Ca1 Sn1 Ge1 S1 N1 O1'
_cell_volume   123.09796849
_cell_formula_units_Z   1
loop_
 _symmetry_equiv_pos_site_id
 _symmetry_equiv_pos_as_xyz
  1  'x, y, z'
loop_
 _atom_site_type_symbol
 _atom_site_label
 _atom_site_symmetry_multiplicity
 _atom_site_fract_x
 _atom_site_fract_y
 _atom_site_fract_z
 _atom_site_occupancy
  Li  Li0  1  0.02724571  0.65161864  0.08447238  1
  Ca  Ca1  1  0.60968466  0.98563169  0.66903495  1
  Sn  Sn2  1  0.33824493  0.86346747  0.35507644  1
  Ge  Ge3  1  0.99704374  0.35729511  0.69078630  1
  S  S4  1  0.60909347  0.38394276  0.09842432  1
  N  N5  1  0.06853248  0.98640601  0.70053833  1
  O  O6  1  0.76064785  0.65470634  0.44966147  1
