# generated using pymatgen
data_LiCoI4
_symmetry_space_group_name_H-M   'P 1'
_cell_length_a   5.48705920
_cell_length_b   4.26808461
_cell_length_c   9.73967342
_cell_angle_alpha   92.47188748
_cell_angle_beta   95.76077523
_cell_angle_gamma   93.63316589
_symmetry_Int_Tables_number   1
_chemical_formula_structural   LiCoI4
_chemical_formula_sum   'Li1 Co1 I4'
_cell_volume   226.20612259
_cell_formula_units_Z   1
loop_
 _symmetry_equiv_pos_site_id
 _symmetry_equiv_pos_as_xyz
  1  'x, y, z'
loop_
 _atom_site_type_symbol
 _atom_site_label
 _atom_site_symmetry_multiplicity
 _atom_site_fract_x
 _atom_site_fract_y
 _atom_site_fract_z
 _atom_site_occupancy
  Li  Li0  1  0.61961519  0.44181516  0.38492598  1
  Co  Co1  1  0.48482053  0.45259159  0.79156064  1
  I  I2  1  0.75826158  -0.02632264  0.80268672  1
  I  I3  1  0.24092590  0.42734644  0.55914495  1
  I  I4  1  0.28240612  0.46785370  0.00547119  1
  I  I5  1  0.80206930  -0.05440613  0.27067636  1
