# generated using pymatgen
data_LiDy2MgS3I
_symmetry_space_group_name_H-M   'P 1'
_cell_length_a   3.87492909
_cell_length_b   3.84200624
_cell_length_c   11.87119216
_cell_angle_alpha   90.23797244
_cell_angle_beta   89.40189289
_cell_angle_gamma   90.01719548
_symmetry_Int_Tables_number   1
_chemical_formula_structural   LiDy2MgS3I
_chemical_formula_sum   'Li1 Dy2 Mg1 S3 I1'
_cell_volume   176.72123478
_cell_formula_units_Z   1
loop_
 _symmetry_equiv_pos_site_id
 _symmetry_equiv_pos_as_xyz
  1  'x, y, z'
loop_
 _atom_site_type_symbol
 _atom_site_label
 _atom_site_symmetry_multiplicity
 _atom_site_fract_x
 _atom_site_fract_y
 _atom_site_fract_z
 _atom_site_occupancy
  Li  Li0  1  0.61548459  0.43799506  0.59194220  1
  Dy  Dy1  1  0.08353064  -0.06181458  0.24334742  1
  Dy  Dy2  1  0.10760703  -0.06174010  0.79006753  1
  Mg  Mg3  1  0.59546400  0.43960476  0.02232231  1
  S  S4  1  0.09473720  -0.06225952  0.01702061  1
  S  S5  1  0.60790851  0.43731902  0.79403514  1
  S  S6  1  0.58340888  0.43873301  0.24302397  1
  I  I7  1  0.11514723  0.93469882  0.51610802  1
