# generated using pymatgen
data_LiHf2USi
_symmetry_space_group_name_H-M   'P 1'
_cell_length_a   4.19601411
_cell_length_b   5.28458534
_cell_length_c   5.28190493
_cell_angle_alpha   68.37814845
_cell_angle_beta   66.62515037
_cell_angle_gamma   66.64312858
_symmetry_Int_Tables_number   1
_chemical_formula_structural   LiHf2USi
_chemical_formula_sum   'Li1 Hf2 U1 Si1'
_cell_volume   95.55003117
_cell_formula_units_Z   1
loop_
 _symmetry_equiv_pos_site_id
 _symmetry_equiv_pos_as_xyz
  1  'x, y, z'
loop_
 _atom_site_type_symbol
 _atom_site_label
 _atom_site_symmetry_multiplicity
 _atom_site_fract_x
 _atom_site_fract_y
 _atom_site_fract_z
 _atom_site_occupancy
  Li  Li0  1  0.77221423  0.14573049  0.00904650  1
  Hf  Hf1  1  0.29934949  0.81938164  0.28160064  1
  Hf  Hf2  1  0.11024649  0.52951387  0.94901633  1
  U  U3  1  0.51425627  0.05024412  0.62150256  1
  Si  Si4  1  0.83983160  0.47376218  0.54602248  1
