# generated using pymatgen
data_LiIn2Cl5
_symmetry_space_group_name_H-M   'P 1'
_cell_length_a   5.06973850
_cell_length_b   4.71611742
_cell_length_c   10.20739617
_cell_angle_alpha   89.95384978
_cell_angle_beta   86.35703696
_cell_angle_gamma   89.72617653
_symmetry_Int_Tables_number   1
_chemical_formula_structural   LiIn2Cl5
_chemical_formula_sum   'Li1 In2 Cl5'
_cell_volume   243.55760029
_cell_formula_units_Z   1
loop_
 _symmetry_equiv_pos_site_id
 _symmetry_equiv_pos_as_xyz
  1  'x, y, z'
loop_
 _atom_site_type_symbol
 _atom_site_label
 _atom_site_symmetry_multiplicity
 _atom_site_fract_x
 _atom_site_fract_y
 _atom_site_fract_z
 _atom_site_occupancy
  Li  Li0  1  0.18121725  0.81704566  0.79651828  1
  In  In1  1  0.60590896  0.31736646  0.61958100  1
  In  In2  1  0.68789622  0.81729989  0.13919329  1
  Cl  Cl3  1  0.22690182  0.31688189  0.82536432  1
  Cl  Cl4  1  0.67804996  0.31765375  0.24115490  1
  Cl  Cl5  1  0.18214153  0.81921787  0.18968620  1
  Cl  Cl6  1  0.30415299  0.81746247  0.56511287  1
  Cl  Cl7  1  0.71628623  0.81690200  0.90371051  1
