# generated using pymatgen
data_LiLa2ZnSiSn2GeAu4
_symmetry_space_group_name_H-M   'P 1'
_cell_length_a   6.35106853
_cell_length_b   6.21974186
_cell_length_c   7.25954471
_cell_angle_alpha   99.02606116
_cell_angle_beta   79.57002618
_cell_angle_gamma   76.54371549
_symmetry_Int_Tables_number   1
_chemical_formula_structural   LiLa2ZnSiSn2GeAu4
_chemical_formula_sum   'Li1 La2 Zn1 Si1 Sn2 Ge1 Au4'
_cell_volume   268.28317737
_cell_formula_units_Z   1
loop_
 _symmetry_equiv_pos_site_id
 _symmetry_equiv_pos_as_xyz
  1  'x, y, z'
loop_
 _atom_site_type_symbol
 _atom_site_label
 _atom_site_symmetry_multiplicity
 _atom_site_fract_x
 _atom_site_fract_y
 _atom_site_fract_z
 _atom_site_occupancy
  Li  Li0  1  0.39061567  0.53060883  0.18634096  1
  La  La1  1  0.27722493  0.23417161  0.80289179  1
  La  La2  1  0.94921154  0.76963951  0.61421316  1
  Zn  Zn3  1  0.69095605  0.10403594  0.32828118  1
  Si  Si4  1  0.45824014  0.67267972  0.75222234  1
  Sn  Sn5  1  0.85792818  0.57205711  0.18051528  1
  Sn  Sn6  1  0.15410797  0.16593894  0.34170674  1
  Ge  Ge7  1  0.80081063  0.19096850  0.96622213  1
  Au  Au8  1  0.46451572  0.82720335  0.46130135  1
  Au  Au9  1  0.76080675  0.31377002  0.64023997  1
  Au  Au10  1  0.55718833  0.91188507  0.02124236  1
  Au  Au11  1  0.11531873  0.82409823  0.01465681  1
