# generated using pymatgen
data_LiPbSe2
_symmetry_space_group_name_H-M   'P 1'
_cell_length_a   4.13138200
_cell_length_b   4.22850566
_cell_length_c   5.69242871
_cell_angle_alpha   89.95883943
_cell_angle_beta   89.92008948
_cell_angle_gamma   90.24930259
_symmetry_Int_Tables_number   1
_chemical_formula_structural   LiPbSe2
_chemical_formula_sum   'Li1 Pb1 Se2'
_cell_volume   99.44323004
_cell_formula_units_Z   1
loop_
 _symmetry_equiv_pos_site_id
 _symmetry_equiv_pos_as_xyz
  1  'x, y, z'
loop_
 _atom_site_type_symbol
 _atom_site_label
 _atom_site_symmetry_multiplicity
 _atom_site_fract_x
 _atom_site_fract_y
 _atom_site_fract_z
 _atom_site_occupancy
  Li  Li0  1  0.28702953  0.90682445  0.38282531  1
  Pb  Pb1  1  0.78273808  0.40904494  0.87935627  1
  Se  Se2  1  0.28321767  0.90890259  0.88421357  1
  Se  Se3  1  0.78774362  0.40810426  0.38067353  1
