# generated using pymatgen
data_LiPrO2
_symmetry_space_group_name_H-M   'P 1'
_cell_length_a   3.45455954
_cell_length_b   3.89554737
_cell_length_c   4.00850018
_cell_angle_alpha   89.93862284
_cell_angle_beta   87.89094724
_cell_angle_gamma   84.78891957
_symmetry_Int_Tables_number   1
_chemical_formula_structural   LiPrO2
_chemical_formula_sum   'Li1 Pr1 O2'
_cell_volume   53.68450238
_cell_formula_units_Z   1
loop_
 _symmetry_equiv_pos_site_id
 _symmetry_equiv_pos_as_xyz
  1  'x, y, z'
loop_
 _atom_site_type_symbol
 _atom_site_label
 _atom_site_symmetry_multiplicity
 _atom_site_fract_x
 _atom_site_fract_y
 _atom_site_fract_z
 _atom_site_occupancy
  Li  Li0  1  0.09361977  0.36060931  0.75894373  1
  Pr  Pr1  1  0.59725648  0.84800852  0.26458510  1
  O  O2  1  0.22198910  0.37831528  0.25205961  1
  O  O3  1  -0.06345465  0.88103205  0.75345851  1
