# generated using pymatgen
data_LiRuF3
_symmetry_space_group_name_H-M   'P 1'
_cell_length_a   3.62696180
_cell_length_b   4.01250050
_cell_length_c   4.79289441
_cell_angle_alpha   71.55623328
_cell_angle_beta   78.25596939
_cell_angle_gamma   84.36584579
_symmetry_Int_Tables_number   1
_chemical_formula_structural   LiRuF3
_chemical_formula_sum   'Li1 Ru1 F3'
_cell_volume   64.74104775
_cell_formula_units_Z   1
loop_
 _symmetry_equiv_pos_site_id
 _symmetry_equiv_pos_as_xyz
  1  'x, y, z'
loop_
 _atom_site_type_symbol
 _atom_site_label
 _atom_site_symmetry_multiplicity
 _atom_site_fract_x
 _atom_site_fract_y
 _atom_site_fract_z
 _atom_site_occupancy
  Li  Li0  1  0.05033149  0.14941917  0.71082557  1
  Ru  Ru1  1  0.69908771  0.82521551  0.30449980  1
  F  F2  1  0.70243666  0.31140046  0.33920338  1
  F  F3  1  0.36952105  -0.01029711  0.98588508  1
  F  F4  1  0.03641198  0.67245966  0.62098555  1
