# generated using pymatgen
data_LiSmGe
_symmetry_space_group_name_H-M   'P 1'
_cell_length_a   4.46448946
_cell_length_b   4.46460975
_cell_length_c   7.37170068
_cell_angle_alpha   90.00904536
_cell_angle_beta   89.99876825
_cell_angle_gamma   119.94382067
_symmetry_Int_Tables_number   1
_chemical_formula_structural   LiSmGe
_chemical_formula_sum   'Li2 Sm2 Ge2'
_cell_volume   127.32075327
_cell_formula_units_Z   2
loop_
 _symmetry_equiv_pos_site_id
 _symmetry_equiv_pos_as_xyz
  1  'x, y, z'
loop_
 _atom_site_type_symbol
 _atom_site_label
 _atom_site_symmetry_multiplicity
 _atom_site_fract_x
 _atom_site_fract_y
 _atom_site_fract_z
 _atom_site_occupancy
  Li  Li0  1  0.66009155  0.81966085  0.80794309  1
  Li  Li1  1  -0.00645705  0.48842724  0.30436367  1
  Sm  Sm2  1  0.32656004  0.15337608  0.55527034  1
  Sm  Sm3  1  0.32668496  0.15458632  0.05507841  1
  Ge  Ge4  1  0.66074284  0.82201247  0.30498067  1
  Ge  Ge5  1  -0.00565956  0.48743317  0.80530745  1
