# generated using pymatgen
data_LiTiGe2P2N7ClO2
_symmetry_space_group_name_H-M   'P 1'
_cell_length_a   4.96095670
_cell_length_b   6.44575132
_cell_length_c   8.54470124
_cell_angle_alpha   87.06405596
_cell_angle_beta   86.44912546
_cell_angle_gamma   90.85167213
_symmetry_Int_Tables_number   1
_chemical_formula_structural   LiTiGe2P2N7ClO2
_chemical_formula_sum   'Li1 Ti1 Ge2 P2 N7 Cl1 O2'
_cell_volume   272.30760772
_cell_formula_units_Z   1
loop_
 _symmetry_equiv_pos_site_id
 _symmetry_equiv_pos_as_xyz
  1  'x, y, z'
loop_
 _atom_site_type_symbol
 _atom_site_label
 _atom_site_symmetry_multiplicity
 _atom_site_fract_x
 _atom_site_fract_y
 _atom_site_fract_z
 _atom_site_occupancy
  Li  Li0  1  0.89286576  0.39042055  0.55670995  1
  Ti  Ti1  1  0.37866229  0.62841081  0.69372626  1
  Ge  Ge2  1  0.03671622  0.78873144  0.19603059  1
  Ge  Ge3  1  0.37886319  0.11547336  0.69167874  1
  P  P4  1  0.56137378  0.86468337  1.00256861  1
  P  P5  1  0.88038668  0.89249446  0.55135265  1
  N  N6  1  0.72430082  0.67205611  0.58818614  1
  N  N7  1  0.17015131  0.88404624  0.63559681  1
  N  N8  1  0.24414303  0.37042952  0.66052014  1
  N  N9  1  0.87392212  0.88318633  0.02931530  1
  N  N10  1  0.46110150  0.06331661  0.89897937  1
  N  N11  1  0.47745986  0.66648894  0.90501102  1
  N  N12  1  0.72195240  0.10428884  0.59449861  1
  Cl  Cl13  1  1.01403204  0.45685126  0.25454068  1
  O  O14  1  0.94736293  0.93125875  0.36657592  1
  O  O15  1  0.39366973  0.85171362  0.16912220  1
