# generated using pymatgen
data_LiTlInSnBr3ClF
_symmetry_space_group_name_H-M   'P 1'
_cell_length_a   6.01807549
_cell_length_b   6.84628741
_cell_length_c   6.88822354
_cell_angle_alpha   102.29954563
_cell_angle_beta   92.08756151
_cell_angle_gamma   92.57191254
_symmetry_Int_Tables_number   1
_chemical_formula_structural   LiTlInSnBr3ClF
_chemical_formula_sum   'Li1 Tl1 In1 Sn1 Br3 Cl1 F1'
_cell_volume   276.70393679
_cell_formula_units_Z   1
loop_
 _symmetry_equiv_pos_site_id
 _symmetry_equiv_pos_as_xyz
  1  'x, y, z'
loop_
 _atom_site_type_symbol
 _atom_site_label
 _atom_site_symmetry_multiplicity
 _atom_site_fract_x
 _atom_site_fract_y
 _atom_site_fract_z
 _atom_site_occupancy
  Li  Li0  1  0.63007338  0.67779553  -0.00032721  1
  Tl  Tl1  1  0.08195624  0.29818544  0.07718735  1
  In  In2  1  0.09111877  0.74921036  0.63642488  1
  Sn  Sn3  1  0.53235762  0.23195477  0.55377970  1
  Br  Br4  1  0.52436338  0.55542715  0.33285676  1
  Br  Br5  1  0.51843967  0.01424202  0.88603436  1
  Br  Br6  1  0.02107930  0.24520113  0.56743916  1
  Cl  Cl7  1  0.01606183  0.73311767  0.04365566  1
  F  F8  1  0.53333504  0.47461160  0.79469599  1
