# generated using pymatgen
data_LiYO2
_symmetry_space_group_name_H-M   'P 1'
_cell_length_a   3.35550854
_cell_length_b   3.39459363
_cell_length_c   4.25813943
_cell_angle_alpha   89.98886976
_cell_angle_beta   89.99628821
_cell_angle_gamma   90.07942367
_symmetry_Int_Tables_number   1
_chemical_formula_structural   LiYO2
_chemical_formula_sum   'Li1 Y1 O2'
_cell_volume   48.50266392
_cell_formula_units_Z   1
loop_
 _symmetry_equiv_pos_site_id
 _symmetry_equiv_pos_as_xyz
  1  'x, y, z'
loop_
 _atom_site_type_symbol
 _atom_site_label
 _atom_site_symmetry_multiplicity
 _atom_site_fract_x
 _atom_site_fract_y
 _atom_site_fract_z
 _atom_site_occupancy
  Li  Li0  1  0.76482865  0.53108200  0.17145391  1
  Y  Y1  1  0.21532702  0.03143292  0.67169300  1
  O  O2  1  0.07052598  0.03294923  0.17176973  1
  O  O3  1  0.67641048  0.53189284  0.67187237  1
