# generated using pymatgen
data_LuF3
_symmetry_space_group_name_H-M   'P 1'
_cell_length_a   5.65363987
_cell_length_b   5.70750392
_cell_length_c   5.88398487
_cell_angle_alpha   62.90367703
_cell_angle_beta   62.92919061
_cell_angle_gamma   62.19757875
_symmetry_Int_Tables_number   1
_chemical_formula_structural   LuF3
_chemical_formula_sum   'Lu2 F6'
_cell_volume   142.23951400
_cell_formula_units_Z   2
loop_
 _symmetry_equiv_pos_site_id
 _symmetry_equiv_pos_as_xyz
  1  'x, y, z'
loop_
 _atom_site_type_symbol
 _atom_site_label
 _atom_site_symmetry_multiplicity
 _atom_site_fract_x
 _atom_site_fract_y
 _atom_site_fract_z
 _atom_site_occupancy
  Lu  Lu0  1  0.24597140  0.99725400  0.31618977  1
  Lu  Lu1  1  0.74634888  0.49724759  0.81602147  1
  F  F2  1  0.42331856  0.74297198  0.06629948  1
  F  F3  1  0.48946623  0.67294886  0.56750179  1
  F  F4  1  0.07013169  0.24769617  0.56920519  1
  F  F5  1  0.91860795  0.82340050  0.56134967  1
  F  F6  1  0.00029058  0.32292826  0.06693475  1
  F  F7  1  0.57323941  0.17085549  0.06495818  1
