# generated using pymatgen
data_LuHf
_symmetry_space_group_name_H-M   'P 1'
_cell_length_a   4.66334795
_cell_length_b   4.67364551
_cell_length_c   5.68166499
_cell_angle_alpha   65.60839331
_cell_angle_beta   65.70019396
_cell_angle_gamma   89.80879848
_symmetry_Int_Tables_number   1
_chemical_formula_structural   LuHf
_chemical_formula_sum   'Lu2 Hf2'
_cell_volume   100.69493391
_cell_formula_units_Z   2
loop_
 _symmetry_equiv_pos_site_id
 _symmetry_equiv_pos_as_xyz
  1  'x, y, z'
loop_
 _atom_site_type_symbol
 _atom_site_label
 _atom_site_symmetry_multiplicity
 _atom_site_fract_x
 _atom_site_fract_y
 _atom_site_fract_z
 _atom_site_occupancy
  Lu  Lu0  1  0.07832612  0.69479668  0.75614303  1
  Lu  Lu1  1  0.32831879  0.44507025  0.25658570  1
  Hf  Hf2  1  0.82939263  0.94555791  0.25421723  1
  Hf  Hf3  1  0.57698982  0.19402237  0.75913414  1
