# generated using pymatgen
data_LuScNiAg
_symmetry_space_group_name_H-M   'P 1'
_cell_length_a   3.41084816
_cell_length_b   4.78769604
_cell_length_c   4.70822053
_cell_angle_alpha   90.22617164
_cell_angle_beta   89.67218573
_cell_angle_gamma   89.69960986
_symmetry_Int_Tables_number   1
_chemical_formula_structural   LuScNiAg
_chemical_formula_sum   'Lu1 Sc1 Ni1 Ag1'
_cell_volume   76.88280864
_cell_formula_units_Z   1
loop_
 _symmetry_equiv_pos_site_id
 _symmetry_equiv_pos_as_xyz
  1  'x, y, z'
loop_
 _atom_site_type_symbol
 _atom_site_label
 _atom_site_symmetry_multiplicity
 _atom_site_fract_x
 _atom_site_fract_y
 _atom_site_fract_z
 _atom_site_occupancy
  Lu  Lu0  1  0.21983080  0.33466138  0.46733490  1
  Sc  Sc1  1  0.22024396  0.83349967  0.96394595  1
  Ni  Ni2  1  0.72071414  0.32623493  0.97018103  1
  Ag  Ag3  1  0.72082334  0.83699005  0.46127545  1
