# generated using pymatgen
data_Mg2IO2
_symmetry_space_group_name_H-M   'P 1'
_cell_length_a   3.97637664
_cell_length_b   3.58423478
_cell_length_c   7.62050189
_cell_angle_alpha   100.09199341
_cell_angle_beta   104.93011202
_cell_angle_gamma   89.98862458
_symmetry_Int_Tables_number   1
_chemical_formula_structural   Mg2IO2
_chemical_formula_sum   'Mg2 I1 O2'
_cell_volume   103.20376142
_cell_formula_units_Z   1
loop_
 _symmetry_equiv_pos_site_id
 _symmetry_equiv_pos_as_xyz
  1  'x, y, z'
loop_
 _atom_site_type_symbol
 _atom_site_label
 _atom_site_symmetry_multiplicity
 _atom_site_fract_x
 _atom_site_fract_y
 _atom_site_fract_z
 _atom_site_occupancy
  Mg  Mg0  1  0.39230198  0.23088137  0.34725882  1
  Mg  Mg1  1  0.95442770  0.77770118  0.47198826  1
  I  I2  1  0.18458659  0.16045440  -0.09003123  1
  O  O3  1  0.45369234  0.77544773  0.47071644  1
  O  O4  1  0.89323392  0.23119679  0.34906868  1
