# generated using pymatgen
data_MgTi2Al3B2
_symmetry_space_group_name_H-M   'P 1'
_cell_length_a   4.82468123
_cell_length_b   4.79271129
_cell_length_c   6.45788583
_cell_angle_alpha   68.23644237
_cell_angle_beta   61.76339572
_cell_angle_gamma   60.20802841
_symmetry_Int_Tables_number   1
_chemical_formula_structural   MgTi2Al3B2
_chemical_formula_sum   'Mg1 Ti2 Al3 B2'
_cell_volume   112.35761528
_cell_formula_units_Z   1
loop_
 _symmetry_equiv_pos_site_id
 _symmetry_equiv_pos_as_xyz
  1  'x, y, z'
loop_
 _atom_site_type_symbol
 _atom_site_label
 _atom_site_symmetry_multiplicity
 _atom_site_fract_x
 _atom_site_fract_y
 _atom_site_fract_z
 _atom_site_occupancy
  Mg  Mg0  1  0.48836601  0.23333747  0.85571107  1
  Ti  Ti1  1  0.07989604  0.83435624  0.06212382  1
  Ti  Ti2  1  0.64356652  0.80318439  0.56049915  1
  Al  Al3  1  0.78097537  0.53006946  0.96960117  1
  Al  Al4  1  0.01919233  0.21470614  0.36165301  1
  Al  Al5  1  0.34265797  0.51976168  0.42805648  1
  B  B6  1  0.07665284  0.19477747  0.70486637  1
  B  B7  1  0.07642920  0.83425897  0.70504815  1
