# generated using pymatgen
data_Mn2Ga5
_symmetry_space_group_name_H-M   'P 1'
_cell_length_a   4.89112398
_cell_length_b   4.74449167
_cell_length_c   4.74338984
_cell_angle_alpha   85.41683058
_cell_angle_beta   84.18442702
_cell_angle_gamma   100.60770779
_symmetry_Int_Tables_number   1
_chemical_formula_structural   Mn2Ga5
_chemical_formula_sum   'Mn2 Ga5'
_cell_volume   107.08852918
_cell_formula_units_Z   1
loop_
 _symmetry_equiv_pos_site_id
 _symmetry_equiv_pos_as_xyz
  1  'x, y, z'
loop_
 _atom_site_type_symbol
 _atom_site_label
 _atom_site_symmetry_multiplicity
 _atom_site_fract_x
 _atom_site_fract_y
 _atom_site_fract_z
 _atom_site_occupancy
  Mn  Mn0  1  0.43395863  0.45380531  0.31932717  1
  Mn  Mn1  1  0.11790144  0.88177309  0.47176445  1
  Ga  Ga2  1  0.27626075  0.16818730  0.89509697  1
  Ga  Ga3  1  0.90420646  0.33616108  0.56407960  1
  Ga  Ga4  1  0.55780457  0.71727482  0.75365037  1
  Ga  Ga5  1  0.64756691  -0.00050580  0.22635434  1
  Ga  Ga6  1  -0.00455573  0.61901536  0.03677262  1
