# generated using pymatgen
data_MnAgHgBiSe4
_symmetry_space_group_name_H-M   'P 1'
_cell_length_a   4.38034356
_cell_length_b   6.18295326
_cell_length_c   8.90783707
_cell_angle_alpha   85.69527066
_cell_angle_beta   89.88962227
_cell_angle_gamma   89.84644150
_symmetry_Int_Tables_number   1
_chemical_formula_structural   MnAgHgBiSe4
_chemical_formula_sum   'Mn1 Ag1 Hg1 Bi1 Se4'
_cell_volume   240.57322547
_cell_formula_units_Z   1
loop_
 _symmetry_equiv_pos_site_id
 _symmetry_equiv_pos_as_xyz
  1  'x, y, z'
loop_
 _atom_site_type_symbol
 _atom_site_label
 _atom_site_symmetry_multiplicity
 _atom_site_fract_x
 _atom_site_fract_y
 _atom_site_fract_z
 _atom_site_occupancy
  Mn  Mn0  1  0.08449954  0.22765784  0.22736215  1
  Ag  Ag1  1  0.58429588  0.70699861  0.46166925  1
  Hg  Hg2  1  0.58512643  0.74640507  0.01962234  1
  Bi  Bi3  1  0.08148718  0.22310650  0.72080850  1
  Se  Se4  1  0.08498333  0.46023240  0.44889539  1
  Se  Se5  1  0.08598055  0.49219432  -0.00416237  1
  Se  Se6  1  0.58153618  0.93322978  0.71066754  1
  Se  Se7  1  0.58504673  0.01647262  0.23419515  1
