# generated using pymatgen
data_MnZnGa2
_symmetry_space_group_name_H-M   'P 1'
_cell_length_a   2.67595402
_cell_length_b   4.25423567
_cell_length_c   6.22198580
_cell_angle_alpha   109.57965891
_cell_angle_beta   102.42974662
_cell_angle_gamma   89.94943159
_symmetry_Int_Tables_number   1
_chemical_formula_structural   MnZnGa2
_chemical_formula_sum   'Mn1 Zn1 Ga2'
_cell_volume   64.97625353
_cell_formula_units_Z   1
loop_
 _symmetry_equiv_pos_site_id
 _symmetry_equiv_pos_as_xyz
  1  'x, y, z'
loop_
 _atom_site_type_symbol
 _atom_site_label
 _atom_site_symmetry_multiplicity
 _atom_site_fract_x
 _atom_site_fract_y
 _atom_site_fract_z
 _atom_site_occupancy
  Mn  Mn0  1  0.84945407  0.59639851  0.00473590  1
  Zn  Zn1  1  0.15197388  0.40390240  0.60922784  1
  Ga  Ga2  1  0.54295469  0.79770962  0.38925100  1
  Ga  Ga3  1  0.33741593  0.08449132  0.98108187  1
