# generated using pymatgen
data_MoS
_symmetry_space_group_name_H-M   'P 1'
_cell_length_a   3.01464472
_cell_length_b   3.01436294
_cell_length_c   4.05592894
_cell_angle_alpha   68.07411107
_cell_angle_beta   68.13942081
_cell_angle_gamma   59.93267599
_symmetry_Int_Tables_number   1
_chemical_formula_structural   MoS
_chemical_formula_sum   'Mo1 S1'
_cell_volume   28.79169526
_cell_formula_units_Z   1
loop_
 _symmetry_equiv_pos_site_id
 _symmetry_equiv_pos_as_xyz
  1  'x, y, z'
loop_
 _atom_site_type_symbol
 _atom_site_label
 _atom_site_symmetry_multiplicity
 _atom_site_fract_x
 _atom_site_fract_y
 _atom_site_fract_z
 _atom_site_occupancy
  Mo  Mo0  1  0.12734675  0.09276318  0.63262511  1
  S  S1  1  0.62208987  0.60167199  0.13383783  1
