# generated using pymatgen
data_Na2CeErTlSbPbO8
_symmetry_space_group_name_H-M   'P 1'
_cell_length_a   6.93340183
_cell_length_b   6.79044388
_cell_length_c   7.35202841
_cell_angle_alpha   62.55248346
_cell_angle_beta   61.38456016
_cell_angle_gamma   61.78133029
_symmetry_Int_Tables_number   1
_chemical_formula_structural   Na2CeErTlSbPbO8
_chemical_formula_sum   'Na2 Ce1 Er1 Tl1 Sb1 Pb1 O8'
_cell_volume   255.14831906
_cell_formula_units_Z   1
loop_
 _symmetry_equiv_pos_site_id
 _symmetry_equiv_pos_as_xyz
  1  'x, y, z'
loop_
 _atom_site_type_symbol
 _atom_site_label
 _atom_site_symmetry_multiplicity
 _atom_site_fract_x
 _atom_site_fract_y
 _atom_site_fract_z
 _atom_site_occupancy
  Na  Na0  1  0.88895474  0.52920458  0.95129794  1
  Na  Na1  1  0.88536752  0.03059519  0.45378477  1
  Ce  Ce2  1  0.88506178  0.53039364  0.45396509  1
  Er  Er3  1  0.38470036  0.02967057  0.45551743  1
  Tl  Tl4  1  0.38685341  0.02878866  0.95448973  1
  Sb  Sb5  1  0.38514795  0.53009023  0.45466895  1
  Pb  Pb6  1  0.38645935  0.52829146  0.95591328  1
  O  O7  1  0.60762651  0.33933077  0.62850903  1
  O  O8  1  0.13425602  0.26886488  0.26826925  1
  O  O9  1  0.57647133  0.31155232  0.26438192  1
  O  O10  1  0.16318979  0.72075631  0.27981515  1
  O  O11  1  0.19331861  0.74860714  0.64489543  1
  O  O12  1  0.17392766  0.31550071  0.63621325  1
  O  O13  1  0.59592085  0.74505613  0.27309613  1
  O  O14  1  0.63660265  0.79061310  0.64058196  1
