# generated using pymatgen
data_Na2LuBrCl5
_symmetry_space_group_name_H-M   'P 1'
_cell_length_a   4.74876428
_cell_length_b   4.90402343
_cell_length_c   12.44958947
_cell_angle_alpha   98.70607680
_cell_angle_beta   69.26796318
_cell_angle_gamma   107.37689292
_symmetry_Int_Tables_number   1
_chemical_formula_structural   Na2LuBrCl5
_chemical_formula_sum   'Na2 Lu1 Br1 Cl5'
_cell_volume   258.43909215
_cell_formula_units_Z   1
loop_
 _symmetry_equiv_pos_site_id
 _symmetry_equiv_pos_as_xyz
  1  'x, y, z'
loop_
 _atom_site_type_symbol
 _atom_site_label
 _atom_site_symmetry_multiplicity
 _atom_site_fract_x
 _atom_site_fract_y
 _atom_site_fract_z
 _atom_site_occupancy
  Na  Na0  1  0.68446754  0.65325158  0.98377934  1
  Na  Na1  1  0.75038038  -0.00520071  0.32838530  1
  Lu  Lu2  1  -0.00805893  0.13303740  0.66829717  1
  Br  Br3  1  0.93286050  0.50145601  0.16454527  1
  Cl  Cl4  1  0.43199715  0.00241583  0.16917124  1
  Cl  Cl5  1  0.59410123  0.29600001  0.60577984  1
  Cl  Cl6  1  0.62572361  0.10227452  0.87688901  1
  Cl  Cl7  1  0.09495983  -0.09141102  0.46401331  1
  Cl  Cl8  1  0.10394721  0.68899149  0.73053271  1
