# generated using pymatgen
data_Na2MgCdI4
_symmetry_space_group_name_H-M   'P 1'
_cell_length_a   6.10296488
_cell_length_b   7.70720014
_cell_length_c   7.76060472
_cell_angle_alpha   82.88297391
_cell_angle_beta   96.72482819
_cell_angle_gamma   95.52336597
_symmetry_Int_Tables_number   1
_chemical_formula_structural   Na2MgCdI4
_chemical_formula_sum   'Na2 Mg1 Cd1 I4'
_cell_volume   358.48949371
_cell_formula_units_Z   1
loop_
 _symmetry_equiv_pos_site_id
 _symmetry_equiv_pos_as_xyz
  1  'x, y, z'
loop_
 _atom_site_type_symbol
 _atom_site_label
 _atom_site_symmetry_multiplicity
 _atom_site_fract_x
 _atom_site_fract_y
 _atom_site_fract_z
 _atom_site_occupancy
  Na  Na0  1  0.80629042  0.77424229  0.14561701  1
  Na  Na1  1  0.80198039  0.22108336  0.69327785  1
  Mg  Mg2  1  0.32963590  0.72748374  0.65367782  1
  Cd  Cd3  1  -0.01137110  0.20961000  0.15460924  1
  I  I4  1  0.56934543  0.50116883  0.88883015  1
  I  I5  1  0.15097027  0.93354954  0.85769033  1
  I  I6  1  0.55592979  0.96295136  0.42713156  1
  I  I7  1  0.03626194  0.52244953  0.44972666  1
