# generated using pymatgen
data_Na2Mg2TlVAgSe6S
_symmetry_space_group_name_H-M   'P 1'
_cell_length_a   7.09266907
_cell_length_b   7.43349812
_cell_length_c   8.59282041
_cell_angle_alpha   74.30430873
_cell_angle_beta   62.29784730
_cell_angle_gamma   62.99122199
_symmetry_Int_Tables_number   1
_chemical_formula_structural   Na2Mg2TlVAgSe6S
_chemical_formula_sum   'Na2 Mg2 Tl1 V1 Ag1 Se6 S1'
_cell_volume   356.35099291
_cell_formula_units_Z   1
loop_
 _symmetry_equiv_pos_site_id
 _symmetry_equiv_pos_as_xyz
  1  'x, y, z'
loop_
 _atom_site_type_symbol
 _atom_site_label
 _atom_site_symmetry_multiplicity
 _atom_site_fract_x
 _atom_site_fract_y
 _atom_site_fract_z
 _atom_site_occupancy
  Na  Na0  1  0.86035090  0.69446315  0.57152655  1
  Na  Na1  1  0.92687348  0.75695601  0.03655656  1
  Mg  Mg2  1  0.64702831  0.42271721  0.02844033  1
  Mg  Mg3  1  0.25363743  0.11763413  -0.00362895  1
  Tl  Tl4  1  0.29591995  0.08127777  0.55112928  1
  V  V5  1  0.79498817  0.35996012  0.37739953  1
  Ag  Ag6  1  0.37585689  0.58329190  0.67472235  1
  Se  Se7  1  0.50055973  0.64577462  0.32306094  1
  Se  Se8  1  0.12825670  0.41095701  0.27890769  1
  Se  Se9  1  0.85846678  0.08383869  0.24166397  1
  Se  Se10  1  0.40843526  0.75366682  0.88554317  1
  Se  Se11  1  0.06087508  0.41678121  0.81396324  1
  Se  Se12  1  0.77246319  0.10586246  0.62561158  1
  S  S13  1  0.62949177  0.14219572  0.92359799  1
