# generated using pymatgen
data_Na4Ga5NiAu
_symmetry_space_group_name_H-M   'P 1'
_cell_length_a   5.83297737
_cell_length_b   6.57543474
_cell_length_c   7.20078127
_cell_angle_alpha   76.24398346
_cell_angle_beta   66.12266306
_cell_angle_gamma   66.12834955
_symmetry_Int_Tables_number   1
_chemical_formula_structural   Na4Ga5NiAu
_chemical_formula_sum   'Na4 Ga5 Ni1 Au1'
_cell_volume   230.03452976
_cell_formula_units_Z   1
loop_
 _symmetry_equiv_pos_site_id
 _symmetry_equiv_pos_as_xyz
  1  'x, y, z'
loop_
 _atom_site_type_symbol
 _atom_site_label
 _atom_site_symmetry_multiplicity
 _atom_site_fract_x
 _atom_site_fract_y
 _atom_site_fract_z
 _atom_site_occupancy
  Na  Na0  1  0.51997262  0.87840444  0.23035167  1
  Na  Na1  1  0.55939890  0.39276282  0.03538828  1
  Na  Na2  1  0.06275731  0.17666474  0.61577175  1
  Na  Na3  1  0.03625763  0.65908830  0.82743258  1
  Ga  Ga4  1  0.51608536  0.42113700  0.49032686  1
  Ga  Ga5  1  0.07506018  0.64107515  0.35341935  1
  Ga  Ga6  1  0.06508031  0.98869600  0.07083670  1
  Ga  Ga7  1  0.59805790  0.71602719  0.64090249  1
  Ga  Ga8  1  0.49493521  0.08198422  0.80262532  1
  Ni  Ni9  1  0.76242536  0.02246136  0.44010592  1
  Au  Au10  1  0.00010337  0.34415332  0.21361930  1
