# generated using pymatgen
data_NaCrCuAgTePdSeS
_symmetry_space_group_name_H-M   'P 1'
_cell_length_a   4.99027611
_cell_length_b   5.55262513
_cell_length_c   7.46861970
_cell_angle_alpha   110.00291888
_cell_angle_beta   117.40992322
_cell_angle_gamma   90.70176384
_symmetry_Int_Tables_number   1
_chemical_formula_structural   NaCrCuAgTePdSeS
_chemical_formula_sum   'Na1 Cr1 Cu1 Ag1 Te1 Pd1 Se1 S1'
_cell_volume   169.02255178
_cell_formula_units_Z   1
loop_
 _symmetry_equiv_pos_site_id
 _symmetry_equiv_pos_as_xyz
  1  'x, y, z'
loop_
 _atom_site_type_symbol
 _atom_site_label
 _atom_site_symmetry_multiplicity
 _atom_site_fract_x
 _atom_site_fract_y
 _atom_site_fract_z
 _atom_site_occupancy
  Na  Na0  1  0.58447625  0.91984480  0.79126156  1
  Cr  Cr1  1  0.39749323  0.28885596  0.22359981  1
  Cu  Cu2  1  0.90960043  0.64354726  0.57678015  1
  Ag  Ag3  1  0.02400629  0.12336091  0.40341185  1
  Te  Te4  1  0.89838713  0.53148580  0.20833905  1
  Pd  Pd5  1  0.44383926  0.80741610  0.27101576  1
  Se  Se6  1  0.64477825  0.27400235  0.58956969  1
  S  S7  1  0.19234914  0.89986571  0.93529209  1
