# generated using pymatgen
data_NaCuSnSbO4
_symmetry_space_group_name_H-M   'P 1'
_cell_length_a   5.32551782
_cell_length_b   5.22425154
_cell_length_c   5.77686688
_cell_angle_alpha   67.90113749
_cell_angle_beta   84.61952419
_cell_angle_gamma   110.86085389
_symmetry_Int_Tables_number   1
_chemical_formula_structural   NaCuSnSbO4
_chemical_formula_sum   'Na1 Cu1 Sn1 Sb1 O4'
_cell_volume   134.25388398
_cell_formula_units_Z   1
loop_
 _symmetry_equiv_pos_site_id
 _symmetry_equiv_pos_as_xyz
  1  'x, y, z'
loop_
 _atom_site_type_symbol
 _atom_site_label
 _atom_site_symmetry_multiplicity
 _atom_site_fract_x
 _atom_site_fract_y
 _atom_site_fract_z
 _atom_site_occupancy
  Na  Na0  1  0.39804037  0.78512075  0.10488323  1
  Cu  Cu1  1  0.68703115  0.33172036  0.24697750  1
  Sn  Sn2  1  0.15200018  0.29316654  0.75526993  1
  Sb  Sb3  1  0.79851999  0.81394464  0.52660056  1
  O  O4  1  0.48741088  0.53203283  0.87180365  1
  O  O5  1  0.85320224  0.13490865  0.12262004  1
  O  O6  1  0.54248949  0.49762026  0.42802023  1
  O  O7  1  0.09555989  0.66849858  0.50930143  1
