# generated using pymatgen
data_NaErMgSOF
_symmetry_space_group_name_H-M   'P 1'
_cell_length_a   3.89764921
_cell_length_b   4.50944534
_cell_length_c   6.69458717
_cell_angle_alpha   108.79405592
_cell_angle_beta   103.71281326
_cell_angle_gamma   89.92622930
_symmetry_Int_Tables_number   1
_chemical_formula_structural   NaErMgSOF
_chemical_formula_sum   'Na1 Er1 Mg1 S1 O1 F1'
_cell_volume   107.85568566
_cell_formula_units_Z   1
loop_
 _symmetry_equiv_pos_site_id
 _symmetry_equiv_pos_as_xyz
  1  'x, y, z'
loop_
 _atom_site_type_symbol
 _atom_site_label
 _atom_site_symmetry_multiplicity
 _atom_site_fract_x
 _atom_site_fract_y
 _atom_site_fract_z
 _atom_site_occupancy
  Na  Na0  1  0.83345298  0.14802842  0.51549683  1
  Er  Er1  1  0.15872233  0.49536541  0.20238141  1
  Mg  Mg2  1  0.76270872  0.85151672  0.90124660  1
  S  S3  1  0.49298439  0.33619075  0.86790379  1
  O  O4  1  0.09325548  0.99819984  0.20839636  1
  F  F5  1  0.72255568  0.58212049  0.38586525  1
