# generated using pymatgen
data_NaMg3S3Cl
_symmetry_space_group_name_H-M   'P 1'
_cell_length_a   3.74152050
_cell_length_b   5.34556987
_cell_length_c   7.58287700
_cell_angle_alpha   90.05163116
_cell_angle_beta   90.07176293
_cell_angle_gamma   90.00040645
_symmetry_Int_Tables_number   1
_chemical_formula_structural   NaMg3S3Cl
_chemical_formula_sum   'Na1 Mg3 S3 Cl1'
_cell_volume   151.66160027
_cell_formula_units_Z   1
loop_
 _symmetry_equiv_pos_site_id
 _symmetry_equiv_pos_as_xyz
  1  'x, y, z'
loop_
 _atom_site_type_symbol
 _atom_site_label
 _atom_site_symmetry_multiplicity
 _atom_site_fract_x
 _atom_site_fract_y
 _atom_site_fract_z
 _atom_site_occupancy
  Na  Na0  1  0.47736969  0.05330454  0.65067772  1
  Mg  Mg1  1  0.47633268  0.05204927  0.18670989  1
  Mg  Mg2  1  0.97991438  0.55462724  0.90620418  1
  Mg  Mg3  1  0.97950755  0.55124782  0.41985914  1
  S  S4  1  0.47878356  0.55278298  0.15095292  1
  S  S5  1  0.97715352  0.05297143  0.39227609  1
  S  S6  1  0.48068320  0.55345917  0.67094424  1
  Cl  Cl7  1  0.97973212  0.05353055  0.93041586  1
