# generated using pymatgen
data_NaPrTlAgF6
_symmetry_space_group_name_H-M   'P 1'
_cell_length_a   5.97820624
_cell_length_b   6.33521485
_cell_length_c   6.26167238
_cell_angle_alpha   63.76234827
_cell_angle_beta   62.20808325
_cell_angle_gamma   62.44965212
_symmetry_Int_Tables_number   1
_chemical_formula_structural   NaPrTlAgF6
_chemical_formula_sum   'Na1 Pr1 Tl1 Ag1 F6'
_cell_volume   178.08400116
_cell_formula_units_Z   1
loop_
 _symmetry_equiv_pos_site_id
 _symmetry_equiv_pos_as_xyz
  1  'x, y, z'
loop_
 _atom_site_type_symbol
 _atom_site_label
 _atom_site_symmetry_multiplicity
 _atom_site_fract_x
 _atom_site_fract_y
 _atom_site_fract_z
 _atom_site_occupancy
  Na  Na0  1  0.64545599  0.40839801  0.28248565  1
  Pr  Pr1  1  0.15516098  0.89148567  0.78534110  1
  Tl  Tl2  1  0.39370414  1.12944667  0.06578700  1
  Ag  Ag3  1  0.94141513  0.55637791  0.55637755  1
  F  F4  1  0.27978447  0.64320202  0.14028453  1
  F  F5  1  0.51817055  0.69636102  0.49475131  1
  F  F6  1  0.86850324  0.68115312  0.89980520  1
  F  F7  1  -0.04011395  0.17521123  0.47838645  1
  F  F8  1  0.83593700  0.15701407  0.02616606  1
  F  F9  1  0.35919252  0.19274902  0.61558287  1
