# generated using pymatgen
data_NaScTaVPS3
_symmetry_space_group_name_H-M   'P 1'
_cell_length_a   3.55435765
_cell_length_b   5.29212795
_cell_length_c   7.40244016
_cell_angle_alpha   92.68919655
_cell_angle_beta   89.92818262
_cell_angle_gamma   90.04805835
_symmetry_Int_Tables_number   1
_chemical_formula_structural   NaScTaVPS3
_chemical_formula_sum   'Na1 Sc1 Ta1 V1 P1 S3'
_cell_volume   139.08726214
_cell_formula_units_Z   1
loop_
 _symmetry_equiv_pos_site_id
 _symmetry_equiv_pos_as_xyz
  1  'x, y, z'
loop_
 _atom_site_type_symbol
 _atom_site_label
 _atom_site_symmetry_multiplicity
 _atom_site_fract_x
 _atom_site_fract_y
 _atom_site_fract_z
 _atom_site_occupancy
  Na  Na0  1  0.52214351  0.97894555  0.52057423  1
  Sc  Sc1  1  0.02420572  0.47874529  0.79040722  1
  Ta  Ta2  1  0.02166166  0.42477067  0.24781766  1
  V  V3  1  0.52257229  0.06306601  0.02955033  1
  P  P4  1  0.52277882  0.53008344  0.03629548  1
  S  S5  1  0.52152428  0.47975349  0.50928096  1
  S  S6  1  0.02337750  0.99468832  0.80066407  1
  S  S7  1  0.02187256  0.96865928  0.23431629  1
