# generated using pymatgen
data_NaSmZnO3
_symmetry_space_group_name_H-M   'P 1'
_cell_length_a   4.56208079
_cell_length_b   4.67689868
_cell_length_c   8.24483434
_cell_angle_alpha   89.13195238
_cell_angle_beta   75.08063301
_cell_angle_gamma   89.27065986
_symmetry_Int_Tables_number   1
_chemical_formula_structural   NaSmZnO3
_chemical_formula_sum   'Na2 Sm2 Zn2 O6'
_cell_volume   169.95814248
_cell_formula_units_Z   2
loop_
 _symmetry_equiv_pos_site_id
 _symmetry_equiv_pos_as_xyz
  1  'x, y, z'
loop_
 _atom_site_type_symbol
 _atom_site_label
 _atom_site_symmetry_multiplicity
 _atom_site_fract_x
 _atom_site_fract_y
 _atom_site_fract_z
 _atom_site_occupancy
  Na  Na0  1  -0.05051107  -0.05918708  0.97822262  1
  Na  Na1  1  0.16200087  0.44176380  0.55129509  1
  Sm  Sm2  1  0.64306840  0.93361435  0.59794913  1
  Sm  Sm3  1  0.47205686  0.43109724  0.93323734  1
  Zn  Zn4  1  0.32802676  0.98909681  0.30156973  1
  Zn  Zn5  1  0.86573890  0.49041579  0.22932016  1
  O  O6  1  0.76591302  0.89243042  0.28721147  1
  O  O7  1  0.61901721  0.43244629  0.64117750  1
  O  O8  1  0.94191107  0.43590129  0.98558175  1
  O  O9  1  0.29137220  0.39536329  0.24403249  1
  O  O10  1  0.49064228  0.93097203  0.89020115  1
  O  O11  1  0.16325313  0.93692398  0.54554103  1
