# generated using pymatgen
data_NaSrInCl2O3
_symmetry_space_group_name_H-M   'P 1'
_cell_length_a   4.20367619
_cell_length_b   6.91438823
_cell_length_c   6.36570477
_cell_angle_alpha   76.30546372
_cell_angle_beta   84.59605848
_cell_angle_gamma   63.23316976
_symmetry_Int_Tables_number   1
_chemical_formula_structural   NaSrInCl2O3
_chemical_formula_sum   'Na1 Sr1 In1 Cl2 O3'
_cell_volume   160.48578376
_cell_formula_units_Z   1
loop_
 _symmetry_equiv_pos_site_id
 _symmetry_equiv_pos_as_xyz
  1  'x, y, z'
loop_
 _atom_site_type_symbol
 _atom_site_label
 _atom_site_symmetry_multiplicity
 _atom_site_fract_x
 _atom_site_fract_y
 _atom_site_fract_z
 _atom_site_occupancy
  Na  Na0  1  0.76930281  0.75384762  0.15494299  1
  Sr  Sr1  1  0.19627117  0.14967836  0.69089587  1
  In  In2  1  0.63183954  0.24776661  0.13944143  1
  Cl  Cl3  1  0.38645783  0.52124509  0.38577462  1
  Cl  Cl4  1  0.68804437  0.57801288  0.84849867  1
  O  O5  1  0.47352075  0.00775072  0.36691030  1
  O  O6  1  0.71706513  0.08209026  0.89959564  1
  O  O7  1  0.12352786  0.20874588  0.28232744  1
