# generated using pymatgen
data_NaTi2Se
_symmetry_space_group_name_H-M   'P 1'
_cell_length_a   4.05499384
_cell_length_b   4.02281044
_cell_length_c   9.93560027
_cell_angle_alpha   78.42762082
_cell_angle_beta   89.95987111
_cell_angle_gamma   89.98592000
_symmetry_Int_Tables_number   1
_chemical_formula_structural   NaTi2Se
_chemical_formula_sum   'Na2 Ti4 Se2'
_cell_volume   158.77952383
_cell_formula_units_Z   2
loop_
 _symmetry_equiv_pos_site_id
 _symmetry_equiv_pos_as_xyz
  1  'x, y, z'
loop_
 _atom_site_type_symbol
 _atom_site_label
 _atom_site_symmetry_multiplicity
 _atom_site_fract_x
 _atom_site_fract_y
 _atom_site_fract_z
 _atom_site_occupancy
  Na  Na0  1  0.24894597  0.03242940  0.03803070  1
  Na  Na1  1  0.75025132  0.41612585  0.26485464  1
  Ti  Ti2  1  0.74981987  0.77403652  0.55115792  1
  Ti  Ti3  1  0.74945995  0.17535402  0.75038820  1
  Ti  Ti4  1  0.24978396  0.27327811  0.55223155  1
  Ti  Ti5  1  0.24922789  0.67466634  0.75158185  1
  Se  Se6  1  0.24963174  0.87361869  0.35074989  1
  Se  Se7  1  0.74938274  0.57513378  0.95180411  1
