# generated using pymatgen
data_NaUTe2
_symmetry_space_group_name_H-M   'P 1'
_cell_length_a   4.35566524
_cell_length_b   4.35702101
_cell_length_c   8.13912393
_cell_angle_alpha   74.56935171
_cell_angle_beta   89.87727478
_cell_angle_gamma   119.91952541
_symmetry_Int_Tables_number   1
_chemical_formula_structural   NaUTe2
_chemical_formula_sum   'Na1 U1 Te2'
_cell_volume   127.35844417
_cell_formula_units_Z   1
loop_
 _symmetry_equiv_pos_site_id
 _symmetry_equiv_pos_as_xyz
  1  'x, y, z'
loop_
 _atom_site_type_symbol
 _atom_site_label
 _atom_site_symmetry_multiplicity
 _atom_site_fract_x
 _atom_site_fract_y
 _atom_site_fract_z
 _atom_site_occupancy
  Na  Na0  1  0.82855381  0.37980541  0.39727032  1
  U  U1  1  0.32831777  0.37938862  0.89758671  1
  Te  Te2  1  0.07433830  0.87191313  0.65892043  1
  Te  Te3  1  0.58208317  0.88732868  0.13599586  1
