# generated using pymatgen
data_Nd2SbPb
_symmetry_space_group_name_H-M   'P 1'
_cell_length_a   4.60535934
_cell_length_b   5.98309637
_cell_length_c   5.98440390
_cell_angle_alpha   77.37194549
_cell_angle_beta   67.72204429
_cell_angle_gamma   67.72639434
_symmetry_Int_Tables_number   1
_chemical_formula_structural   Nd2SbPb
_chemical_formula_sum   'Nd2 Sb1 Pb1'
_cell_volume   140.66050935
_cell_formula_units_Z   1
loop_
 _symmetry_equiv_pos_site_id
 _symmetry_equiv_pos_as_xyz
  1  'x, y, z'
loop_
 _atom_site_type_symbol
 _atom_site_label
 _atom_site_symmetry_multiplicity
 _atom_site_fract_x
 _atom_site_fract_y
 _atom_site_fract_z
 _atom_site_occupancy
  Nd  Nd0  1  0.70467647  0.27042475  0.78214360  1
  Nd  Nd1  1  0.70475241  0.77729255  0.27508532  1
  Sb  Sb2  1  0.03522988  0.19598937  0.20074597  1
  Pb  Pb3  1  0.03962361  0.69296951  0.69759012  1
