# generated using pymatgen
data_Nd2TlGe
_symmetry_space_group_name_H-M   'P 1'
_cell_length_a   4.62992043
_cell_length_b   5.27516096
_cell_length_c   5.27420604
_cell_angle_alpha   93.49635367
_cell_angle_beta   76.05476823
_cell_angle_gamma   76.05436361
_symmetry_Int_Tables_number   1
_chemical_formula_structural   Nd2TlGe
_chemical_formula_sum   'Nd2 Tl1 Ge1'
_cell_volume   120.36013452
_cell_formula_units_Z   1
loop_
 _symmetry_equiv_pos_site_id
 _symmetry_equiv_pos_as_xyz
  1  'x, y, z'
loop_
 _atom_site_type_symbol
 _atom_site_label
 _atom_site_symmetry_multiplicity
 _atom_site_fract_x
 _atom_site_fract_y
 _atom_site_fract_z
 _atom_site_occupancy
  Nd  Nd0  1  0.46063731  0.24382039  0.67534160  1
  Nd  Nd1  1  0.46060625  0.77960532  0.13963605  1
  Tl  Tl2  1  0.90099767  0.63665861  0.53256114  1
  Ge  Ge3  1  0.86711787  0.18928847  0.08488416  1
