# generated using pymatgen
data_Nd3B7
_symmetry_space_group_name_H-M   'P 1'
_cell_length_a   3.21623722
_cell_length_b   4.17189191
_cell_length_c   11.60639907
_cell_angle_alpha   90.01140918
_cell_angle_beta   90.04462477
_cell_angle_gamma   67.22757060
_symmetry_Int_Tables_number   1
_chemical_formula_structural   Nd3B7
_chemical_formula_sum   'Nd3 B7'
_cell_volume   143.59282204
_cell_formula_units_Z   1
loop_
 _symmetry_equiv_pos_site_id
 _symmetry_equiv_pos_as_xyz
  1  'x, y, z'
loop_
 _atom_site_type_symbol
 _atom_site_label
 _atom_site_symmetry_multiplicity
 _atom_site_fract_x
 _atom_site_fract_y
 _atom_site_fract_z
 _atom_site_occupancy
  Nd  Nd0  1  0.37784581  0.13627007  0.46067158  1
  Nd  Nd1  1  0.37763158  0.13496397  0.10946628  1
  Nd  Nd2  1  0.37917751  0.13543803  0.78504964  1
  B  B3  1  0.64904401  0.59289934  0.94736670  1
  B  B4  1  0.10685604  0.67711792  0.94734233  1
  B  B5  1  0.08109979  0.72719797  0.28509612  1
  B  B6  1  0.67315235  0.54482309  0.28505431  1
  B  B7  1  0.10932628  0.67797225  0.62280496  1
  B  B8  1  0.87730231  0.13596172  0.28496747  1
  B  B9  1  0.65131538  0.59398004  0.62278919  1
