# generated using pymatgen
data_Nd7CdAgPt
_symmetry_space_group_name_H-M   'P 1'
_cell_length_a   7.11411345
_cell_length_b   6.99241783
_cell_length_c   6.80365980
_cell_angle_alpha   83.59530851
_cell_angle_beta   73.14434403
_cell_angle_gamma   73.40723152
_symmetry_Int_Tables_number   1
_chemical_formula_structural   Nd7CdAgPt
_chemical_formula_sum   'Nd7 Cd1 Ag1 Pt1'
_cell_volume   310.26636523
_cell_formula_units_Z   1
loop_
 _symmetry_equiv_pos_site_id
 _symmetry_equiv_pos_as_xyz
  1  'x, y, z'
loop_
 _atom_site_type_symbol
 _atom_site_label
 _atom_site_symmetry_multiplicity
 _atom_site_fract_x
 _atom_site_fract_y
 _atom_site_fract_z
 _atom_site_occupancy
  Nd  Nd0  1  0.54385668  0.59467591  0.85570431  1
  Nd  Nd1  1  0.78040630  0.77903722  0.31500296  1
  Nd  Nd2  1  0.51280301  0.10008341  0.95283784  1
  Nd  Nd3  1  0.03442821  0.68631968  0.76890519  1
  Nd  Nd4  1  0.96105024  0.26723784  0.48833415  1
  Nd  Nd5  1  0.45929630  0.36747096  0.41995508  1
  Nd  Nd6  1  -0.00497689  0.18316538  0.99247512  1
  Cd  Cd7  1  0.24441634  0.82947404  0.27529862  1
  Ag  Ag8  1  0.34625306  0.96216937  0.60989551  1
  Pt  Pt9  1  0.18029424  0.47037051  0.13126042  1
