# generated using pymatgen
data_NdInCu2Sn
_symmetry_space_group_name_H-M   'P 1'
_cell_length_a   4.54541942
_cell_length_b   4.55654808
_cell_length_c   6.50278438
_cell_angle_alpha   69.59263160
_cell_angle_beta   69.53050347
_cell_angle_gamma   60.07044759
_symmetry_Int_Tables_number   1
_chemical_formula_structural   NdInCu2Sn
_chemical_formula_sum   'Nd1 In1 Cu2 Sn1'
_cell_volume   106.80389681
_cell_formula_units_Z   1
loop_
 _symmetry_equiv_pos_site_id
 _symmetry_equiv_pos_as_xyz
  1  'x, y, z'
loop_
 _atom_site_type_symbol
 _atom_site_label
 _atom_site_symmetry_multiplicity
 _atom_site_fract_x
 _atom_site_fract_y
 _atom_site_fract_z
 _atom_site_occupancy
  Nd  Nd0  1  0.55513776  0.65431116  0.67075729  1
  In  In1  1  0.76673117  0.86615784  0.03504134  1
  Cu  Cu2  1  0.15229167  0.25261824  0.87690604  1
  Cu  Cu3  1  0.01909264  0.11047742  0.28975934  1
  Sn  Sn4  1  0.32516109  0.42024379  0.36609366  1
