# generated using pymatgen
data_NdIn2Ga
_symmetry_space_group_name_H-M   'P 1'
_cell_length_a   4.57085385
_cell_length_b   5.84454167
_cell_length_c   5.84356372
_cell_angle_alpha   45.77343517
_cell_angle_beta   66.98797992
_cell_angle_gamma   66.86672273
_symmetry_Int_Tables_number   1
_chemical_formula_structural   NdIn2Ga
_chemical_formula_sum   'Nd1 In2 Ga1'
_cell_volume   101.23888730
_cell_formula_units_Z   1
loop_
 _symmetry_equiv_pos_site_id
 _symmetry_equiv_pos_as_xyz
  1  'x, y, z'
loop_
 _atom_site_type_symbol
 _atom_site_label
 _atom_site_symmetry_multiplicity
 _atom_site_fract_x
 _atom_site_fract_y
 _atom_site_fract_z
 _atom_site_occupancy
  Nd  Nd0  1  0.26486530  -0.00127735  0.82048673  1
  In  In1  1  0.77462363  0.48839899  0.31166139  1
  In  In2  1  0.51579200  0.24584210  0.06766606  1
  Ga  Ga3  1  0.01807902  0.74540947  0.56872922  1
