# generated using pymatgen
data_NdMgSiPPt2
_symmetry_space_group_name_H-M   'P 1'
_cell_length_a   4.06155016
_cell_length_b   4.34985939
_cell_length_c   6.94129342
_cell_angle_alpha   82.21706037
_cell_angle_beta   73.12369536
_cell_angle_gamma   90.02532298
_symmetry_Int_Tables_number   1
_chemical_formula_structural   NdMgSiPPt2
_chemical_formula_sum   'Nd1 Mg1 Si1 P1 Pt2'
_cell_volume   116.16840041
_cell_formula_units_Z   1
loop_
 _symmetry_equiv_pos_site_id
 _symmetry_equiv_pos_as_xyz
  1  'x, y, z'
loop_
 _atom_site_type_symbol
 _atom_site_label
 _atom_site_symmetry_multiplicity
 _atom_site_fract_x
 _atom_site_fract_y
 _atom_site_fract_z
 _atom_site_occupancy
  Nd  Nd0  1  0.88803557  0.53408708  0.83480785  1
  Mg  Mg1  1  0.61812537  0.66728034  0.37902715  1
  Si  Si2  1  0.46997064  0.07178492  0.66854073  1
  P  P3  1  0.22206337  0.46849114  0.16975689  1
  Pt  Pt4  1  0.28752997  0.99608704  0.03694748  1
  Pt  Pt5  1  0.06608760  0.12805427  0.47468311  1
