# generated using pymatgen
data_NdS
_symmetry_space_group_name_H-M   'P 1'
_cell_length_a   3.51457901
_cell_length_b   3.51514458
_cell_length_c   3.52538954
_cell_angle_alpha   90.02212348
_cell_angle_beta   90.00591282
_cell_angle_gamma   89.95462729
_symmetry_Int_Tables_number   1
_chemical_formula_structural   NdS
_chemical_formula_sum   'Nd1 S1'
_cell_volume   43.55353843
_cell_formula_units_Z   1
loop_
 _symmetry_equiv_pos_site_id
 _symmetry_equiv_pos_as_xyz
  1  'x, y, z'
loop_
 _atom_site_type_symbol
 _atom_site_label
 _atom_site_symmetry_multiplicity
 _atom_site_fract_x
 _atom_site_fract_y
 _atom_site_fract_z
 _atom_site_occupancy
  Nd  Nd0  1  0.54889713  0.48380017  0.18113212  1
  S  S1  1  0.05039846  0.98371315  0.68157385  1
