# generated using pymatgen
data_NdThZnAu
_symmetry_space_group_name_H-M   'P 1'
_cell_length_a   4.42193755
_cell_length_b   4.64634662
_cell_length_c   6.12149643
_cell_angle_alpha   88.78798038
_cell_angle_beta   89.10328279
_cell_angle_gamma   63.35013214
_symmetry_Int_Tables_number   1
_chemical_formula_structural   NdThZnAu
_chemical_formula_sum   'Nd1 Th1 Zn1 Au1'
_cell_volume   112.38212894
_cell_formula_units_Z   1
loop_
 _symmetry_equiv_pos_site_id
 _symmetry_equiv_pos_as_xyz
  1  'x, y, z'
loop_
 _atom_site_type_symbol
 _atom_site_label
 _atom_site_symmetry_multiplicity
 _atom_site_fract_x
 _atom_site_fract_y
 _atom_site_fract_z
 _atom_site_occupancy
  Nd  Nd0  1  0.06616264  0.73648235  0.15210595  1
  Th  Th1  1  0.72951695  0.44144503  0.64669409  1
  Zn  Zn2  1  0.39756417  0.09022597  0.39641497  1
  Au  Au3  1  0.39740057  0.09029134  0.89551138  1
