# generated using pymatgen
data_OF
_symmetry_space_group_name_H-M   'P 1'
_cell_length_a   4.16568327
_cell_length_b   4.01760937
_cell_length_c   5.19159308
_cell_angle_alpha   59.81836413
_cell_angle_beta   71.06711710
_cell_angle_gamma   97.55340909
_symmetry_Int_Tables_number   1
_chemical_formula_structural   OF
_chemical_formula_sum   'O2 F2'
_cell_volume   66.27439058
_cell_formula_units_Z   2
loop_
 _symmetry_equiv_pos_site_id
 _symmetry_equiv_pos_as_xyz
  1  'x, y, z'
loop_
 _atom_site_type_symbol
 _atom_site_label
 _atom_site_symmetry_multiplicity
 _atom_site_fract_x
 _atom_site_fract_y
 _atom_site_fract_z
 _atom_site_occupancy
  O  O0  1  0.24133322  0.13294088  0.62948223  1
  O  O1  1  0.46275003  0.38905465  0.34026938  1
  F  F2  1  0.75629184  0.20684089  0.21848167  1
  F  F3  1  0.39248528  0.14786844  0.87564854  1
