# generated using pymatgen
data_Pm2In2GaAg2Sb
_symmetry_space_group_name_H-M   'P 1'
_cell_length_a   5.96482276
_cell_length_b   5.99083299
_cell_length_c   7.09347731
_cell_angle_alpha   59.26077904
_cell_angle_beta   71.27079369
_cell_angle_gamma   65.80848212
_symmetry_Int_Tables_number   1
_chemical_formula_structural   Pm2In2GaAg2Sb
_chemical_formula_sum   'Pm2 In2 Ga1 Ag2 Sb1'
_cell_volume   196.70884568
_cell_formula_units_Z   1
loop_
 _symmetry_equiv_pos_site_id
 _symmetry_equiv_pos_as_xyz
  1  'x, y, z'
loop_
 _atom_site_type_symbol
 _atom_site_label
 _atom_site_symmetry_multiplicity
 _atom_site_fract_x
 _atom_site_fract_y
 _atom_site_fract_z
 _atom_site_occupancy
  Pm  Pm0  1  0.43174653  0.50943564  0.20382533  1
  Pm  Pm1  1  0.98658842  0.23572735  0.80225792  1
  In  In2  1  0.03546565  0.14360535  0.36629435  1
  In  In3  1  0.38866862  0.63594962  0.66237138  1
  Ga  Ga4  1  0.45764712  0.09947418  0.03041341  1
  Ag  Ag5  1  0.94666686  0.64019619  -0.02889089  1
  Ag  Ag6  1  0.59355474  0.00106305  0.67935323  1
  Sb  Sb7  1  0.83990022  0.79172121  0.32089539  1
