# generated using pymatgen
data_PmGaN2
_symmetry_space_group_name_H-M   'P 1'
_cell_length_a   3.56599297
_cell_length_b   3.56598514
_cell_length_c   4.97377469
_cell_angle_alpha   89.95750225
_cell_angle_beta   89.88975154
_cell_angle_gamma   90.05477587
_symmetry_Int_Tables_number   1
_chemical_formula_structural   PmGaN2
_chemical_formula_sum   'Pm1 Ga1 N2'
_cell_volume   63.24773772
_cell_formula_units_Z   1
loop_
 _symmetry_equiv_pos_site_id
 _symmetry_equiv_pos_as_xyz
  1  'x, y, z'
loop_
 _atom_site_type_symbol
 _atom_site_label
 _atom_site_symmetry_multiplicity
 _atom_site_fract_x
 _atom_site_fract_y
 _atom_site_fract_z
 _atom_site_occupancy
  Pm  Pm0  1  0.95196983  0.10581768  0.91141073  1
  Ga  Ga1  1  0.45140945  0.60659907  0.41145794  1
  N  N2  1  0.45175019  0.10736310  0.20575652  1
  N  N3  1  0.95064843  0.60665580  0.61710777  1
