# generated using pymatgen
data_PmSmMgIn3
_symmetry_space_group_name_H-M   'P 1'
_cell_length_a   4.55398928
_cell_length_b   6.35205225
_cell_length_c   6.05998705
_cell_angle_alpha   90.57408072
_cell_angle_beta   67.88558725
_cell_angle_gamma   89.98336577
_symmetry_Int_Tables_number   1
_chemical_formula_structural   PmSmMgIn3
_chemical_formula_sum   'Pm1 Sm1 Mg1 In3'
_cell_volume   162.39260686
_cell_formula_units_Z   1
loop_
 _symmetry_equiv_pos_site_id
 _symmetry_equiv_pos_as_xyz
  1  'x, y, z'
loop_
 _atom_site_type_symbol
 _atom_site_label
 _atom_site_symmetry_multiplicity
 _atom_site_fract_x
 _atom_site_fract_y
 _atom_site_fract_z
 _atom_site_occupancy
  Pm  Pm0  1  0.65291465  0.50174857  0.60689259  1
  Sm  Sm1  1  0.03217999  0.96554876  0.84418156  1
  Mg  Mg2  1  0.34305901  0.23324808  0.22508528  1
  In  In3  1  0.95652168  0.46002260  -0.00193109  1
  In  In4  1  0.34328619  0.73403699  0.22446228  1
  In  In5  1  0.72950558  0.00666201  0.45263757  1
