# generated using pymatgen
data_Pr2ZnCuSb2
_symmetry_space_group_name_H-M   'P 1'
_cell_length_a   4.44558259
_cell_length_b   4.45333360
_cell_length_c   8.60353889
_cell_angle_alpha   90.00843849
_cell_angle_beta   90.00118575
_cell_angle_gamma   120.05839523
_symmetry_Int_Tables_number   1
_chemical_formula_structural   Pr2ZnCuSb2
_chemical_formula_sum   'Pr2 Zn1 Cu1 Sb2'
_cell_volume   147.42319230
_cell_formula_units_Z   1
loop_
 _symmetry_equiv_pos_site_id
 _symmetry_equiv_pos_as_xyz
  1  'x, y, z'
loop_
 _atom_site_type_symbol
 _atom_site_label
 _atom_site_symmetry_multiplicity
 _atom_site_fract_x
 _atom_site_fract_y
 _atom_site_fract_z
 _atom_site_occupancy
  Pr  Pr0  1  0.90876840  0.77152059  0.31804649  1
  Pr  Pr1  1  0.90840736  0.77059107  0.82695509  1
  Zn  Zn2  1  0.24421066  0.44071408  0.57259734  1
  Cu  Cu3  1  0.57283110  0.10155469  0.07342794  1
  Sb  Sb4  1  0.57688857  0.10686881  0.57241563  1
  Sb  Sb5  1  0.24014920  0.43552295  0.07252865  1
