# generated using pymatgen
data_Pr4Tl2InCoCuIr
_symmetry_space_group_name_H-M   'P 1'
_cell_length_a   7.23628484
_cell_length_b   7.61715186
_cell_length_c   7.20961383
_cell_angle_alpha   57.96255401
_cell_angle_beta   63.94370961
_cell_angle_gamma   58.08323710
_symmetry_Int_Tables_number   1
_chemical_formula_structural   Pr4Tl2InCoCuIr
_chemical_formula_sum   'Pr4 Tl2 In1 Co1 Cu1 Ir1'
_cell_volume   278.89110504
_cell_formula_units_Z   1
loop_
 _symmetry_equiv_pos_site_id
 _symmetry_equiv_pos_as_xyz
  1  'x, y, z'
loop_
 _atom_site_type_symbol
 _atom_site_label
 _atom_site_symmetry_multiplicity
 _atom_site_fract_x
 _atom_site_fract_y
 _atom_site_fract_z
 _atom_site_occupancy
  Pr  Pr0  1  0.12535544  0.64497088  0.88101142  1
  Pr  Pr1  1  0.63212410  0.64759616  0.37020976  1
  Pr  Pr2  1  0.63199417  0.15608812  0.36982982  1
  Pr  Pr3  1  0.12280215  0.15540637  0.88016488  1
  Tl  Tl4  1  0.13963422  0.63958978  0.38867546  1
  Tl  Tl5  1  0.09200507  0.18187013  0.34702255  1
  In  In6  1  0.65273642  0.63043758  0.89562164  1
  Co  Co7  1  0.43546526  0.34301131  0.68278107  1
  Cu  Cu8  1  0.69101299  0.09320957  0.92777434  1
  Ir  Ir9  1  0.37660309  0.90284150  0.62365144  1
