# generated using pymatgen
data_PrCdSbTe2
_symmetry_space_group_name_H-M   'P 1'
_cell_length_a   6.30301961
_cell_length_b   6.59665501
_cell_length_c   4.51960029
_cell_angle_alpha   90.04256406
_cell_angle_beta   68.92325648
_cell_angle_gamma   77.86695955
_symmetry_Int_Tables_number   1
_chemical_formula_structural   PrCdSbTe2
_chemical_formula_sum   'Pr1 Cd1 Sb1 Te2'
_cell_volume   170.82985052
_cell_formula_units_Z   1
loop_
 _symmetry_equiv_pos_site_id
 _symmetry_equiv_pos_as_xyz
  1  'x, y, z'
loop_
 _atom_site_type_symbol
 _atom_site_label
 _atom_site_symmetry_multiplicity
 _atom_site_fract_x
 _atom_site_fract_y
 _atom_site_fract_z
 _atom_site_occupancy
  Pr  Pr0  1  0.32659361  0.38244119  0.95723084  1
  Cd  Cd1  1  0.80323606  -0.08268686  0.22300099  1
  Sb  Sb2  1  0.04497167  0.71968866  0.60090620  1
  Te  Te3  1  0.73717634  0.37249425  0.25003221  1
  Te  Te4  1  0.31139716  0.03248760  0.46521260  1
