# generated using pymatgen
data_PrCo3C
_symmetry_space_group_name_H-M   'P 1'
_cell_length_a   3.98135215
_cell_length_b   3.98001280
_cell_length_c   3.98024615
_cell_angle_alpha   90.00016447
_cell_angle_beta   89.99998452
_cell_angle_gamma   89.99122686
_symmetry_Int_Tables_number   1
_chemical_formula_structural   PrCo3C
_chemical_formula_sum   'Pr1 Co3 C1'
_cell_volume   63.07031311
_cell_formula_units_Z   1
loop_
 _symmetry_equiv_pos_site_id
 _symmetry_equiv_pos_as_xyz
  1  'x, y, z'
loop_
 _atom_site_type_symbol
 _atom_site_label
 _atom_site_symmetry_multiplicity
 _atom_site_fract_x
 _atom_site_fract_y
 _atom_site_fract_z
 _atom_site_occupancy
  Pr  Pr0  1  0.57167273  0.38196225  0.80310085  1
  Co  Co1  1  0.57143743  0.88229484  0.30352017  1
  Co  Co2  1  0.07172776  0.38492397  0.30345740  1
  Co  Co3  1  0.07171348  0.88216034  0.80842667  1
  C  C4  1  0.07149189  0.88485438  0.30849918  1
