# generated using pymatgen
data_PrNdCuSi4Ni2Ir
_symmetry_space_group_name_H-M   'P 1'
_cell_length_a   5.76896396
_cell_length_b   5.73355000
_cell_length_c   6.66419301
_cell_angle_alpha   64.53439829
_cell_angle_beta   77.53765762
_cell_angle_gamma   59.99251321
_symmetry_Int_Tables_number   1
_chemical_formula_structural   PrNdCuSi4Ni2Ir
_chemical_formula_sum   'Pr1 Nd1 Cu1 Si4 Ni2 Ir1'
_cell_volume   172.33725395
_cell_formula_units_Z   1
loop_
 _symmetry_equiv_pos_site_id
 _symmetry_equiv_pos_as_xyz
  1  'x, y, z'
loop_
 _atom_site_type_symbol
 _atom_site_label
 _atom_site_symmetry_multiplicity
 _atom_site_fract_x
 _atom_site_fract_y
 _atom_site_fract_z
 _atom_site_occupancy
  Pr  Pr0  1  0.09578770  0.17543865  0.47359541  1
  Nd  Nd1  1  0.59564644  0.42107976  0.98299622  1
  Cu  Cu2  1  0.09613743  0.79352076  0.23768717  1
  Si  Si3  1  0.97966460  0.69278502  0.97810094  1
  Si  Si4  1  0.48103457  0.53107715  0.47976768  1
  Si  Si5  1  0.21097687  0.15526209  0.97815897  1
  Si  Si6  1  0.71035390  0.81250967  0.47991224  1
  Ni  Ni7  1  0.09569634  0.57603512  0.67252907  1
  Ni  Ni8  1  0.59506141  0.82691602  0.17152821  1
  Ir  Ir9  1  0.59560082  0.04887560  0.72661156  1
