# generated using pymatgen
data_PrScOs2Pd
_symmetry_space_group_name_H-M   'P 1'
_cell_length_a   4.53281994
_cell_length_b   4.53169984
_cell_length_c   6.40370776
_cell_angle_alpha   69.27219211
_cell_angle_beta   69.28607194
_cell_angle_gamma   59.94677446
_symmetry_Int_Tables_number   1
_chemical_formula_structural   PrScOs2Pd
_chemical_formula_sum   'Pr1 Sc1 Os2 Pd1'
_cell_volume   103.92662139
_cell_formula_units_Z   1
loop_
 _symmetry_equiv_pos_site_id
 _symmetry_equiv_pos_as_xyz
  1  'x, y, z'
loop_
 _atom_site_type_symbol
 _atom_site_label
 _atom_site_symmetry_multiplicity
 _atom_site_fract_x
 _atom_site_fract_y
 _atom_site_fract_z
 _atom_site_occupancy
  Pr  Pr0  1  0.77803512  0.40641556  0.51951936  1
  Sc  Sc1  1  0.97608484  0.60497515  0.92558956  1
  Os  Os2  1  0.22328130  0.85194545  0.18368330  1
  Os  Os3  1  0.35963531  -0.01207748  0.77601665  1
  Pd  Pd4  1  0.54473221  0.17313793  0.21846597  1
