# generated using pymatgen
data_PrTmGa3
_symmetry_space_group_name_H-M   'P 1'
_cell_length_a   4.55987807
_cell_length_b   4.57511456
_cell_length_c   6.87969351
_cell_angle_alpha   71.64835218
_cell_angle_beta   71.58428950
_cell_angle_gamma   61.45253132
_symmetry_Int_Tables_number   1
_chemical_formula_structural   PrTmGa3
_chemical_formula_sum   'Pr1 Tm1 Ga3'
_cell_volume   117.28291822
_cell_formula_units_Z   1
loop_
 _symmetry_equiv_pos_site_id
 _symmetry_equiv_pos_as_xyz
  1  'x, y, z'
loop_
 _atom_site_type_symbol
 _atom_site_label
 _atom_site_symmetry_multiplicity
 _atom_site_fract_x
 _atom_site_fract_y
 _atom_site_fract_z
 _atom_site_occupancy
  Pr  Pr0  1  0.92530080  0.34070239  0.88120698  1
  Tm  Tm1  1  0.73417694  0.15124035  0.46221246  1
  Ga  Ga2  1  0.49127845  0.90865771  0.19097049  1
  Ga  Ga3  1  0.14662376  0.56411364  0.22111312  1
  Ga  Ga4  1  0.33832339  0.75346662  0.64409325  1
