# generated using pymatgen
data_Rb2CuSb2SeS4
_symmetry_space_group_name_H-M   'P 1'
_cell_length_a   5.59580210
_cell_length_b   7.51011054
_cell_length_c   8.66489494
_cell_angle_alpha   104.35470057
_cell_angle_beta   108.04078220
_cell_angle_gamma   92.62519175
_symmetry_Int_Tables_number   1
_chemical_formula_structural   Rb2CuSb2SeS4
_chemical_formula_sum   'Rb2 Cu1 Sb2 Se1 S4'
_cell_volume   332.44723391
_cell_formula_units_Z   1
loop_
 _symmetry_equiv_pos_site_id
 _symmetry_equiv_pos_as_xyz
  1  'x, y, z'
loop_
 _atom_site_type_symbol
 _atom_site_label
 _atom_site_symmetry_multiplicity
 _atom_site_fract_x
 _atom_site_fract_y
 _atom_site_fract_z
 _atom_site_occupancy
  Rb  Rb0  1  0.86335488  0.61419458  0.54986485  1
  Rb  Rb1  1  0.71575784  0.92841714  0.16732287  1
  Cu  Cu2  1  0.14070732  0.07422893  0.83908878  1
  Sb  Sb3  1  0.49640909  0.17590024  0.64871387  1
  Sb  Sb4  1  0.14654097  0.44484662  0.03235934  1
  Se  Se5  1  0.26540190  0.69545373  0.30901274  1
  S  S6  1  0.19839570  0.16054363  0.11456322  1
  S  S7  1  0.66729550  0.44915152  0.91154064  1
  S  S8  1  0.90204711  0.12790759  0.59996254  1
  S  S9  1  0.44780061  0.91838033  0.76424293  1
