# generated using pymatgen
data_Rb2LiSiI
_symmetry_space_group_name_H-M   'P 1'
_cell_length_a   4.75547211
_cell_length_b   4.80393326
_cell_length_c   10.36758557
_cell_angle_alpha   89.97491835
_cell_angle_beta   90.01377340
_cell_angle_gamma   122.83483996
_symmetry_Int_Tables_number   1
_chemical_formula_structural   Rb2LiSiI
_chemical_formula_sum   'Rb2 Li1 Si1 I1'
_cell_volume   199.00776343
_cell_formula_units_Z   1
loop_
 _symmetry_equiv_pos_site_id
 _symmetry_equiv_pos_as_xyz
  1  'x, y, z'
loop_
 _atom_site_type_symbol
 _atom_site_label
 _atom_site_symmetry_multiplicity
 _atom_site_fract_x
 _atom_site_fract_y
 _atom_site_fract_z
 _atom_site_occupancy
  Rb  Rb0  1  0.28678570  0.13700655  0.52467772  1
  Rb  Rb1  1  0.28263135  0.13477664  0.05769094  1
  Li  Li2  1  0.94894376  0.47326107  0.79135950  1
  Si  Si3  1  0.62727202  0.79951056  0.79105833  1
  I  I4  1  0.96168614  0.46500798  0.29105848  1
