# generated using pymatgen
data_Rb2Li4UO5
_symmetry_space_group_name_H-M   'P 1'
_cell_length_a   4.28697897
_cell_length_b   7.04917785
_cell_length_c   7.03618525
_cell_angle_alpha   117.59076107
_cell_angle_beta   90.04547681
_cell_angle_gamma   90.00959468
_symmetry_Int_Tables_number   1
_chemical_formula_structural   Rb2Li4UO5
_chemical_formula_sum   'Rb2 Li4 U1 O5'
_cell_volume   188.45036065
_cell_formula_units_Z   1
loop_
 _symmetry_equiv_pos_site_id
 _symmetry_equiv_pos_as_xyz
  1  'x, y, z'
loop_
 _atom_site_type_symbol
 _atom_site_label
 _atom_site_symmetry_multiplicity
 _atom_site_fract_x
 _atom_site_fract_y
 _atom_site_fract_z
 _atom_site_occupancy
  Rb  Rb0  1  0.02921111  0.12064896  0.58912566  1
  Rb  Rb1  1  0.02722637  0.64516524  0.11323961  1
  Li  Li2  1  0.02424018  0.42777787  0.40973211  1
  Li  Li3  1  0.52845162  0.48499157  0.75067933  1
  Li  Li4  1  0.03125805  0.82557211  0.80792638  1
  Li  Li5  1  0.52804921  0.68223831  0.55290488  1
  U  U6  1  0.52771865  0.14520230  0.09020643  1
  O  O7  1  0.52976151  0.36009242  0.43495716  1
  O  O8  1  0.52591051  0.80050031  0.87632955  1
  O  O9  1  0.02675725  0.71575773  0.51916304  1
  O  O10  1  0.02800456  0.11378498  0.12204992  1
  O  O11  1  0.52824335  0.32269819  0.91218231  1
