# generated using pymatgen
data_Rb3EuBiSe4Br
_symmetry_space_group_name_H-M   'P 1'
_cell_length_a   7.84551979
_cell_length_b   8.49458618
_cell_length_c   6.77989310
_cell_angle_alpha   66.79027865
_cell_angle_beta   65.81528029
_cell_angle_gamma   80.72684781
_symmetry_Int_Tables_number   1
_chemical_formula_structural   Rb3EuBiSe4Br
_chemical_formula_sum   'Rb3 Eu1 Bi1 Se4 Br1'
_cell_volume   378.82506671
_cell_formula_units_Z   1
loop_
 _symmetry_equiv_pos_site_id
 _symmetry_equiv_pos_as_xyz
  1  'x, y, z'
loop_
 _atom_site_type_symbol
 _atom_site_label
 _atom_site_symmetry_multiplicity
 _atom_site_fract_x
 _atom_site_fract_y
 _atom_site_fract_z
 _atom_site_occupancy
  Rb  Rb0  1  0.12513009  0.30250981  0.92731685  1
  Rb  Rb1  1  0.29530072  0.70224671  0.14846386  1
  Rb  Rb2  1  0.71249704  0.51131774  0.51465129  1
  Eu  Eu3  1  0.91418809  0.93449819  0.73041325  1
  Bi  Bi4  1  0.47971530  0.04903362  0.41797362  1
  Se  Se5  1  0.14231842  0.25059619  0.44256508  1
  Se  Se6  1  0.28453173  0.75179219  0.63184817  1
  Se  Se7  1  0.85810578  0.93630797  0.19620608  1
  Se  Se8  1  0.54160207  0.08931744  0.76086396  1
  Br  Br9  1  0.75353068  0.57499274  -0.04013502  1
