# generated using pymatgen
data_Rb4NaLi5Te6
_symmetry_space_group_name_H-M   'P 1'
_cell_length_a   5.03958988
_cell_length_b   9.03404909
_cell_length_c   12.08673156
_cell_angle_alpha   77.20969929
_cell_angle_beta   80.49504952
_cell_angle_gamma   94.20068732
_symmetry_Int_Tables_number   1
_chemical_formula_structural   Rb4NaLi5Te6
_chemical_formula_sum   'Rb4 Na1 Li5 Te6'
_cell_volume   525.80138476
_cell_formula_units_Z   1
loop_
 _symmetry_equiv_pos_site_id
 _symmetry_equiv_pos_as_xyz
  1  'x, y, z'
loop_
 _atom_site_type_symbol
 _atom_site_label
 _atom_site_symmetry_multiplicity
 _atom_site_fract_x
 _atom_site_fract_y
 _atom_site_fract_z
 _atom_site_occupancy
  Rb  Rb0  1  -0.06638956  0.49288746  0.97736189  1
  Rb  Rb1  1  0.46391185  0.62075419  0.66241369  1
  Rb  Rb2  1  0.55934961  0.86484456  0.05011346  1
  Rb  Rb3  1  0.05513581  0.73125064  0.36434595  1
  Na  Na4  1  0.49552519  0.04393937  0.70178442  1
  Li  Li5  1  0.01320623  0.33682625  0.31613667  1
  Li  Li6  1  -0.03640063  0.16251963  0.80338305  1
  Li  Li7  1  0.49445182  0.31210853  0.47243182  1
  Li  Li8  1  0.53391119  0.19739414  0.22623064  1
  Li  Li9  1  0.03136596  0.03934017  0.54415463  1
  Te  Te10  1  0.55788666  0.49593088  0.25197199  1
  Te  Te11  1  0.95858624  0.34440836  0.58246096  1
  Te  Te12  1  0.40311165  0.23936028  0.90628974  1
  Te  Te13  1  -0.05350206  0.85413669  0.77609119  1
  Te  Te14  1  0.58383392  0.00849962  0.43168609  1
  Te  Te15  1  0.07647076  0.11723130  0.13762982  1
