# generated using pymatgen
data_RbBa2MgCdBi2
_symmetry_space_group_name_H-M   'P 1'
_cell_length_a   5.03617056
_cell_length_b   5.03580563
_cell_length_c   12.40868222
_cell_angle_alpha   78.83546685
_cell_angle_beta   78.77006872
_cell_angle_gamma   90.14602745
_symmetry_Int_Tables_number   1
_chemical_formula_structural   RbBa2MgCdBi2
_chemical_formula_sum   'Rb1 Ba2 Mg1 Cd1 Bi2'
_cell_volume   302.56671713
_cell_formula_units_Z   1
loop_
 _symmetry_equiv_pos_site_id
 _symmetry_equiv_pos_as_xyz
  1  'x, y, z'
loop_
 _atom_site_type_symbol
 _atom_site_label
 _atom_site_symmetry_multiplicity
 _atom_site_fract_x
 _atom_site_fract_y
 _atom_site_fract_z
 _atom_site_occupancy
  Rb  Rb0  1  0.35115390  0.13495559  0.91017873  1
  Ba  Ba1  1  -0.02095119  0.77151593  0.64758534  1
  Ba  Ba2  1  0.70719219  0.49552826  0.17365448  1
  Mg  Mg3  1  0.09502870  0.38136754  0.41041455  1
  Cd  Cd4  1  0.58961726  0.88702878  0.41018219  1
  Bi  Bi5  1  0.16682854  0.95660163  0.25303741  1
  Bi  Bi6  1  0.51900270  0.31156566  0.56722963  1
