# generated using pymatgen
data_RbBaGaO3
_symmetry_space_group_name_H-M   'P 1'
_cell_length_a   3.43343879
_cell_length_b   6.25534772
_cell_length_c   6.01653870
_cell_angle_alpha   106.22643029
_cell_angle_beta   72.95791907
_cell_angle_gamma   75.03375181
_symmetry_Int_Tables_number   1
_chemical_formula_structural   RbBaGaO3
_chemical_formula_sum   'Rb1 Ba1 Ga1 O3'
_cell_volume   110.18041224
_cell_formula_units_Z   1
loop_
 _symmetry_equiv_pos_site_id
 _symmetry_equiv_pos_as_xyz
  1  'x, y, z'
loop_
 _atom_site_type_symbol
 _atom_site_label
 _atom_site_symmetry_multiplicity
 _atom_site_fract_x
 _atom_site_fract_y
 _atom_site_fract_z
 _atom_site_occupancy
  Rb  Rb0  1  0.75904102  0.33023327  0.56061620  1
  Ba  Ba1  1  0.27023663  -0.03448261  0.89503307  1
  Ga  Ga2  1  0.29607832  0.61482064  0.20770583  1
  O  O3  1  0.01817830  0.84801016  0.52512361  1
  O  O4  1  0.86122080  0.65958493  0.03499511  1
  O  O5  1  0.47797610  0.29687827  0.15848176  1
