# generated using pymatgen
data_RbDy2MgTl3Cl4O3F4
_symmetry_space_group_name_H-M   'P 1'
_cell_length_a   7.44905219
_cell_length_b   7.33806379
_cell_length_c   9.37185696
_cell_angle_alpha   109.02766994
_cell_angle_beta   94.72343630
_cell_angle_gamma   108.04294737
_symmetry_Int_Tables_number   1
_chemical_formula_structural   RbDy2MgTl3Cl4O3F4
_chemical_formula_sum   'Rb1 Dy2 Mg1 Tl3 Cl4 O3 F4'
_cell_volume   450.79666282
_cell_formula_units_Z   1
loop_
 _symmetry_equiv_pos_site_id
 _symmetry_equiv_pos_as_xyz
  1  'x, y, z'
loop_
 _atom_site_type_symbol
 _atom_site_label
 _atom_site_symmetry_multiplicity
 _atom_site_fract_x
 _atom_site_fract_y
 _atom_site_fract_z
 _atom_site_occupancy
  Rb  Rb0  1  0.49947536  0.68150514  0.43853348  1
  Dy  Dy1  1  0.16344829  0.07553099  0.62505738  1
  Dy  Dy2  1  0.14237919  0.79362345  0.14432808  1
  Mg  Mg3  1  0.24617320  0.30415344  0.04650485  1
  Tl  Tl4  1  0.62254093  0.15160095  0.87844537  1
  Tl  Tl5  1  0.49923208  0.65064413  0.93543618  1
  Tl  Tl6  1  0.00584410  0.59168275  0.63417547  1
  Cl  Cl7  1  0.43998431  0.13726885  0.15426994  1
  Cl  Cl8  1  0.96401440  0.07880306  0.08692588  1
  Cl  Cl9  1  0.79641049  0.59643979  0.17886764  1
  Cl  Cl10  1  0.68033609  0.36230664  0.57646255  1
  O  O11  1  0.29216545  0.59674738  0.13867829  1
  O  O12  1  0.24867658  0.81066090  0.63821399  1
  O  O13  1  0.32786666  0.26638626  0.84970586  1
  F  F14  1  0.05338450  0.64786183  0.89260064  1
  F  F15  1  0.12868567  0.33077474  0.56726416  1
  F  F16  1  0.87585376  0.90450528  0.62611055  1
  F  F17  1  0.23763619  0.97192366  0.39581148  1
