# generated using pymatgen
data_RbErZn2Se5
_symmetry_space_group_name_H-M   'P 1'
_cell_length_a   8.15189298
_cell_length_b   7.91026122
_cell_length_c   8.44303482
_cell_angle_alpha   75.92195585
_cell_angle_beta   95.87992334
_cell_angle_gamma   75.23484100
_symmetry_Int_Tables_number   1
_chemical_formula_structural   RbErZn2Se5
_chemical_formula_sum   'Rb2 Er2 Zn4 Se10'
_cell_volume   502.73822588
_cell_formula_units_Z   2
loop_
 _symmetry_equiv_pos_site_id
 _symmetry_equiv_pos_as_xyz
  1  'x, y, z'
loop_
 _atom_site_type_symbol
 _atom_site_label
 _atom_site_symmetry_multiplicity
 _atom_site_fract_x
 _atom_site_fract_y
 _atom_site_fract_z
 _atom_site_occupancy
  Rb  Rb0  1  0.50914292  0.27463100  0.01082034  1
  Rb  Rb1  1  0.85525149  0.84791137  0.38850419  1
  Er  Er2  1  0.41970357  0.58566363  0.40195662  1
  Er  Er3  1  0.98260468  0.31406856  0.74014066  1
  Zn  Zn4  1  0.25821484  0.09330650  0.50422617  1
  Zn  Zn5  1  0.59565148  0.79651666  0.85002626  1
  Zn  Zn6  1  0.93354730  0.42964883  0.18101452  1
  Zn  Zn7  1  0.18174729  0.71122562  0.86325450  1
  Se  Se8  1  0.28542316  0.98935161  0.24613422  1
  Se  Se9  1  0.64166384  0.63045149  0.14372749  1
  Se  Se10  1  0.72584962  0.05355831  0.75223785  1
  Se  Se11  1  0.28491927  0.97383775  0.80610476  1
  Se  Se12  1  0.95026465  0.23745712  0.45302683  1
  Se  Se13  1  0.19351571  0.53866610  0.66132869  1
  Se  Se14  1  0.53061190  0.19218092  0.48669279  1
  Se  Se15  1  -0.00410712  0.13456391  0.08117094  1
  Se  Se16  1  0.66322082  0.58850196  0.66732229  1
  Se  Se17  1  0.17021027  0.56769137  0.14923504  1
