# generated using pymatgen
data_RbEuBr2
_symmetry_space_group_name_H-M   'P 1'
_cell_length_a   6.05572796
_cell_length_b   4.30617475
_cell_length_c   6.29937471
_cell_angle_alpha   72.33146215
_cell_angle_beta   90.21064856
_cell_angle_gamma   90.73641947
_symmetry_Int_Tables_number   1
_chemical_formula_structural   RbEuBr2
_chemical_formula_sum   'Rb1 Eu1 Br2'
_cell_volume   156.50715857
_cell_formula_units_Z   1
loop_
 _symmetry_equiv_pos_site_id
 _symmetry_equiv_pos_as_xyz
  1  'x, y, z'
loop_
 _atom_site_type_symbol
 _atom_site_label
 _atom_site_symmetry_multiplicity
 _atom_site_fract_x
 _atom_site_fract_y
 _atom_site_fract_z
 _atom_site_occupancy
  Rb  Rb0  1  0.01051631  0.19273779  0.47117840  1
  Eu  Eu1  1  0.51908197  0.87667070  0.02007633  1
  Br  Br2  1  0.02001487  0.88485959  0.03343481  1
  Br  Br3  1  0.52058342  0.60083319  0.59756640  1
