# generated using pymatgen
data_RbHg
_symmetry_space_group_name_H-M   'P 1'
_cell_length_a   6.30492689
_cell_length_b   6.31980016
_cell_length_c   6.29193285
_cell_angle_alpha   60.64884138
_cell_angle_beta   61.03913992
_cell_angle_gamma   60.45984517
_symmetry_Int_Tables_number   1
_chemical_formula_structural   RbHg
_chemical_formula_sum   'Rb2 Hg2'
_cell_volume   180.13194997
_cell_formula_units_Z   2
loop_
 _symmetry_equiv_pos_site_id
 _symmetry_equiv_pos_as_xyz
  1  'x, y, z'
loop_
 _atom_site_type_symbol
 _atom_site_label
 _atom_site_symmetry_multiplicity
 _atom_site_fract_x
 _atom_site_fract_y
 _atom_site_fract_z
 _atom_site_occupancy
  Rb  Rb0  1  0.39609496  0.75088988  0.81190407  1
  Rb  Rb1  1  0.89478978  0.25068881  0.31385237  1
  Hg  Hg2  1  0.14604042  0.50486061  0.56041532  1
  Hg  Hg3  1  0.64598402  0.99447408  0.06654472  1
