# generated using pymatgen
data_RbLiPrSi2S3
_symmetry_space_group_name_H-M   'P 1'
_cell_length_a   5.32928892
_cell_length_b   4.78513984
_cell_length_c   10.44545909
_cell_angle_alpha   60.99050708
_cell_angle_beta   79.48959682
_cell_angle_gamma   94.35811319
_symmetry_Int_Tables_number   1
_chemical_formula_structural   RbLiPrSi2S3
_chemical_formula_sum   'Rb1 Li1 Pr1 Si2 S3'
_cell_volume   224.81774079
_cell_formula_units_Z   1
loop_
 _symmetry_equiv_pos_site_id
 _symmetry_equiv_pos_as_xyz
  1  'x, y, z'
loop_
 _atom_site_type_symbol
 _atom_site_label
 _atom_site_symmetry_multiplicity
 _atom_site_fract_x
 _atom_site_fract_y
 _atom_site_fract_z
 _atom_site_occupancy
  Rb  Rb0  1  0.89202562  0.12307558  0.41715203  1
  Li  Li1  1  0.53249682  -0.12250901  0.17793602  1
  Pr  Pr2  1  0.57293021  0.61310332  0.89787462  1
  Si  Si3  1  0.02302590  0.17490319  -0.02999566  1
  Si  Si4  1  0.22039347  0.18211143  0.75382682  1
  S  S5  1  0.12649698  0.73852708  0.74452849  1
  S  S6  1  0.63930854  0.31630054  0.68937315  1
  S  S7  1  0.47964500  0.35411241  0.20362942  1
