# generated using pymatgen
data_RbNaSmTeO
_symmetry_space_group_name_H-M   'P 1'
_cell_length_a   4.85693414
_cell_length_b   4.75580399
_cell_length_c   5.66708057
_cell_angle_alpha   89.92141191
_cell_angle_beta   90.21049385
_cell_angle_gamma   90.00902410
_symmetry_Int_Tables_number   1
_chemical_formula_structural   RbNaSmTeO
_chemical_formula_sum   'Rb1 Na1 Sm1 Te1 O1'
_cell_volume   130.90077079
_cell_formula_units_Z   1
loop_
 _symmetry_equiv_pos_site_id
 _symmetry_equiv_pos_as_xyz
  1  'x, y, z'
loop_
 _atom_site_type_symbol
 _atom_site_label
 _atom_site_symmetry_multiplicity
 _atom_site_fract_x
 _atom_site_fract_y
 _atom_site_fract_z
 _atom_site_occupancy
  Rb  Rb0  1  0.47091789  0.67081030  0.32726741  1
  Na  Na1  1  0.97058279  0.67739796  0.81770439  1
  Sm  Sm2  1  0.47046762  0.17456027  0.83063500  1
  Te  Te3  1  0.97104027  0.17060252  0.32942838  1
  O  O4  1  0.47075324  0.67338442  0.82717383  1
