# generated using pymatgen
data_RbNaTi2Se5S
_symmetry_space_group_name_H-M   'P 1'
_cell_length_a   6.33792491
_cell_length_b   5.91339308
_cell_length_c   7.91250115
_cell_angle_alpha   68.24593073
_cell_angle_beta   83.86337348
_cell_angle_gamma   89.94418908
_symmetry_Int_Tables_number   1
_chemical_formula_structural   RbNaTi2Se5S
_chemical_formula_sum   'Rb1 Na1 Ti2 Se5 S1'
_cell_volume   273.61230325
_cell_formula_units_Z   1
loop_
 _symmetry_equiv_pos_site_id
 _symmetry_equiv_pos_as_xyz
  1  'x, y, z'
loop_
 _atom_site_type_symbol
 _atom_site_label
 _atom_site_symmetry_multiplicity
 _atom_site_fract_x
 _atom_site_fract_y
 _atom_site_fract_z
 _atom_site_occupancy
  Rb  Rb0  1  0.04555042  0.07255740  0.33475452  1
  Na  Na1  1  0.52772503  0.43600757  0.60051508  1
  Ti  Ti2  1  0.28664390  0.75787785  0.96402377  1
  Ti  Ti3  1  0.80124722  0.78434346  0.91180734  1
  Se  Se4  1  0.54049462  0.94969995  0.11084330  1
  Se  Se5  1  0.08858724  0.12858101  0.76159656  1
  Se  Se6  1  0.54038934  0.42126893  0.11165760  1
  Se  Se7  1  0.58677084  0.90897100  0.65574322  1
  Se  Se8  1  0.08875664  0.58936927  0.76109594  1
  S  S9  1  0.00998843  0.64672115  0.18566912  1
