# generated using pymatgen
data_RbPrTiTeO4
_symmetry_space_group_name_H-M   'P 1'
_cell_length_a   3.88580628
_cell_length_b   4.28892241
_cell_length_c   8.82163525
_cell_angle_alpha   88.18926139
_cell_angle_beta   90.08796965
_cell_angle_gamma   90.04020315
_symmetry_Int_Tables_number   1
_chemical_formula_structural   RbPrTiTeO4
_chemical_formula_sum   'Rb1 Pr1 Ti1 Te1 O4'
_cell_volume   146.94706322
_cell_formula_units_Z   1
loop_
 _symmetry_equiv_pos_site_id
 _symmetry_equiv_pos_as_xyz
  1  'x, y, z'
loop_
 _atom_site_type_symbol
 _atom_site_label
 _atom_site_symmetry_multiplicity
 _atom_site_fract_x
 _atom_site_fract_y
 _atom_site_fract_z
 _atom_site_occupancy
  Rb  Rb0  1  0.13077066  0.97141567  0.53747246  1
  Pr  Pr1  1  0.12911655  0.00091800  0.03669040  1
  Ti  Ti2  1  0.63042335  0.50185114  0.25098780  1
  Te  Te3  1  0.62868981  0.44227417  0.83265116  1
  O  O4  1  0.62870224  -0.07548175  0.87076357  1
  O  O5  1  0.13019978  0.47562197  0.18889824  1
  O  O6  1  0.62995345  0.95563879  0.20821821  1
  O  O7  1  0.63083331  0.47094587  0.44325574  1
