# generated using pymatgen
data_RbScF6
_symmetry_space_group_name_H-M   'P 1'
_cell_length_a   4.66910129
_cell_length_b   5.92045999
_cell_length_c   4.78745656
_cell_angle_alpha   93.81556907
_cell_angle_beta   86.64087046
_cell_angle_gamma   82.81840279
_symmetry_Int_Tables_number   1
_chemical_formula_structural   RbScF6
_chemical_formula_sum   'Rb1 Sc1 F6'
_cell_volume   130.71186220
_cell_formula_units_Z   1
loop_
 _symmetry_equiv_pos_site_id
 _symmetry_equiv_pos_as_xyz
  1  'x, y, z'
loop_
 _atom_site_type_symbol
 _atom_site_label
 _atom_site_symmetry_multiplicity
 _atom_site_fract_x
 _atom_site_fract_y
 _atom_site_fract_z
 _atom_site_occupancy
  Rb  Rb0  1  0.12144912  0.41121921  0.86637413  1
  Sc  Sc1  1  0.62289343  0.91114759  0.36426201  1
  F  F2  1  0.58352280  0.68228336  0.03927183  1
  F  F3  1  0.89103721  0.05984131  0.09095957  1
  F  F4  1  0.65999380  0.14178298  0.68785891  1
  F  F5  1  0.27680692  0.14724244  0.32941990  1
  F  F6  1  0.35793560  0.75677626  0.63254117  1
  F  F7  1  0.96460882  0.67205435  0.40224653  1
