# generated using pymatgen
data_RbTePdO
_symmetry_space_group_name_H-M   'P 1'
_cell_length_a   4.77307738
_cell_length_b   4.77753692
_cell_length_c   4.66198404
_cell_angle_alpha   89.53465735
_cell_angle_beta   89.55224485
_cell_angle_gamma   60.55397638
_symmetry_Int_Tables_number   1
_chemical_formula_structural   RbTePdO
_chemical_formula_sum   'Rb1 Te1 Pd1 O1'
_cell_volume   92.57267232
_cell_formula_units_Z   1
loop_
 _symmetry_equiv_pos_site_id
 _symmetry_equiv_pos_as_xyz
  1  'x, y, z'
loop_
 _atom_site_type_symbol
 _atom_site_label
 _atom_site_symmetry_multiplicity
 _atom_site_fract_x
 _atom_site_fract_y
 _atom_site_fract_z
 _atom_site_occupancy
  Rb  Rb0  1  0.19718764  0.55059577  0.42466891  1
  Te  Te1  1  0.86273516  0.21591431  0.94842966  1
  Pd  Pd2  1  0.52811319  0.88056903  0.88911244  1
  O  O3  1  0.53357302  0.88779698  0.47059564  1
