# generated using pymatgen
data_RbYAuO4
_symmetry_space_group_name_H-M   'P 1'
_cell_length_a   4.38391281
_cell_length_b   4.20847564
_cell_length_c   7.20952590
_cell_angle_alpha   106.93651303
_cell_angle_beta   90.60353096
_cell_angle_gamma   89.94009145
_symmetry_Int_Tables_number   1
_chemical_formula_structural   RbYAuO4
_chemical_formula_sum   'Rb1 Y1 Au1 O4'
_cell_volume   127.23644168
_cell_formula_units_Z   1
loop_
 _symmetry_equiv_pos_site_id
 _symmetry_equiv_pos_as_xyz
  1  'x, y, z'
loop_
 _atom_site_type_symbol
 _atom_site_label
 _atom_site_symmetry_multiplicity
 _atom_site_fract_x
 _atom_site_fract_y
 _atom_site_fract_z
 _atom_site_occupancy
  Rb  Rb0  1  0.31584156  0.75647452  0.32756732  1
  Y  Y1  1  0.81433769  0.08421948  0.98364916  1
  Au  Au2  1  0.82188976  0.39048544  0.59570006  1
  O  O3  1  0.82247042  0.24932192  0.31280988  1
  O  O4  1  0.78663181  0.91359099  0.64152025  1
  O  O5  1  0.31602362  0.11447852  0.04342529  1
  O  O6  1  0.82093187  0.53364390  0.88211790  1
