# generated using pymatgen
data_Sc2IrSO8
_symmetry_space_group_name_H-M   'P 1'
_cell_length_a   2.85778660
_cell_length_b   5.61023044
_cell_length_c   11.50574822
_cell_angle_alpha   101.77645322
_cell_angle_beta   89.64474437
_cell_angle_gamma   90.22993384
_symmetry_Int_Tables_number   1
_chemical_formula_structural   Sc2IrSO8
_chemical_formula_sum   'Sc2 Ir1 S1 O8'
_cell_volume   180.58281226
_cell_formula_units_Z   1
loop_
 _symmetry_equiv_pos_site_id
 _symmetry_equiv_pos_as_xyz
  1  'x, y, z'
loop_
 _atom_site_type_symbol
 _atom_site_label
 _atom_site_symmetry_multiplicity
 _atom_site_fract_x
 _atom_site_fract_y
 _atom_site_fract_z
 _atom_site_occupancy
  Sc  Sc0  1  0.59654306  0.95245207  0.27831165  1
  Sc  Sc1  1  0.60213644  0.73349018  0.88754679  1
  Ir  Ir2  1  0.10040057  0.37866523  0.09010817  1
  S  S3  1  0.10572521  0.13990837  0.89985281  1
  O  O4  1  0.09888334  0.64347044  -0.01258798  1
  O  O5  1  0.09850371  0.59505986  0.74764024  1
  O  O6  1  0.09965920  0.12346234  0.16777134  1
  O  O7  1  0.09652619  0.65184633  0.21441599  1
  O  O8  1  0.09502201  0.05125284  0.38822526  1
  O  O9  1  0.10917311  0.45188898  0.64188951  1
  O  O10  1  0.00992678  0.69051937  0.55083841  1
  O  O11  1  -0.03620374  -0.12148416  0.62564693  1
