# generated using pymatgen
data_ScTiGa2FeCo
_symmetry_space_group_name_H-M   'P 1'
_cell_length_a   3.97816098
_cell_length_b   4.65085498
_cell_length_c   5.56098117
_cell_angle_alpha   74.62449092
_cell_angle_beta   90.08511694
_cell_angle_gamma   115.16501852
_symmetry_Int_Tables_number   1
_chemical_formula_structural   ScTiGa2FeCo
_chemical_formula_sum   'Sc1 Ti1 Ga2 Fe1 Co1'
_cell_volume   89.05727667
_cell_formula_units_Z   1
loop_
 _symmetry_equiv_pos_site_id
 _symmetry_equiv_pos_as_xyz
  1  'x, y, z'
loop_
 _atom_site_type_symbol
 _atom_site_label
 _atom_site_symmetry_multiplicity
 _atom_site_fract_x
 _atom_site_fract_y
 _atom_site_fract_z
 _atom_site_occupancy
  Sc  Sc0  1  0.25301515  -0.00845452  0.32470964  1
  Ti  Ti1  1  0.97477701  0.43616985  0.93632463  1
  Ga  Ga2  1  0.63912418  0.76387744  0.06242959  1
  Ga  Ga3  1  0.90249574  0.29237400  0.51350632  1
  Fe  Fe4  1  0.27495657  0.03820204  0.81259685  1
  Co  Co5  1  0.58302337  0.65417295  0.64012895  1
