# generated using pymatgen
data_ScTi2O5
_symmetry_space_group_name_H-M   'P 1'
_cell_length_a   3.87840089
_cell_length_b   3.23599214
_cell_length_c   8.13243159
_cell_angle_alpha   101.46140914
_cell_angle_beta   101.84378807
_cell_angle_gamma   89.99666018
_symmetry_Int_Tables_number   1
_chemical_formula_structural   ScTi2O5
_chemical_formula_sum   'Sc1 Ti2 O5'
_cell_volume   97.81270783
_cell_formula_units_Z   1
loop_
 _symmetry_equiv_pos_site_id
 _symmetry_equiv_pos_as_xyz
  1  'x, y, z'
loop_
 _atom_site_type_symbol
 _atom_site_label
 _atom_site_symmetry_multiplicity
 _atom_site_fract_x
 _atom_site_fract_y
 _atom_site_fract_z
 _atom_site_occupancy
  Sc  Sc0  1  0.85091009  0.13259198  0.41096830  1
  Ti  Ti1  1  0.38378237  0.44930566  0.04338524  1
  Ti  Ti2  1  0.46517730  0.76115340  0.66829869  1
  O  O3  1  0.15842053  0.95205112  0.04869214  1
  O  O4  1  0.93673127  0.73110087  0.60838153  1
  O  O5  1  0.38472779  0.17265270  0.49134348  1
  O  O6  1  0.73473285  0.54892719  0.24290983  1
  O  O7  1  0.52776853  0.34536256  0.83694896  1
