# generated using pymatgen
data_ScU2InSiNiTe3As
_symmetry_space_group_name_H-M   'P 1'
_cell_length_a   4.15203183
_cell_length_b   5.78676243
_cell_length_c   10.64283817
_cell_angle_alpha   86.65681968
_cell_angle_beta   90.02714839
_cell_angle_gamma   110.99684583
_symmetry_Int_Tables_number   1
_chemical_formula_structural   ScU2InSiNiTe3As
_chemical_formula_sum   'Sc1 U2 In1 Si1 Ni1 Te3 As1'
_cell_volume   238.27072475
_cell_formula_units_Z   1
loop_
 _symmetry_equiv_pos_site_id
 _symmetry_equiv_pos_as_xyz
  1  'x, y, z'
loop_
 _atom_site_type_symbol
 _atom_site_label
 _atom_site_symmetry_multiplicity
 _atom_site_fract_x
 _atom_site_fract_y
 _atom_site_fract_z
 _atom_site_occupancy
  Sc  Sc0  1  0.14656474  0.39371882  0.61620116  1
  U  U1  1  0.88097696  0.86268042  0.36730317  1
  U  U2  1  0.39685713  0.89351964  0.84090235  1
  In  In3  1  0.76181486  0.62431334  0.08151248  1
  Si  Si4  1  0.83427200  0.76820984  0.63886648  1
  Ni  Ni5  1  0.72777030  0.55558078  0.82537165  1
  Te  Te6  1  0.16996168  0.44054755  0.34878909  1
  Te  Te7  1  0.46812945  0.03718573  0.14905992  1
  Te  Te8  1  0.09944020  0.29946558  0.88753442  1
  As  As9  1  0.45139689  0.00333307  0.56453973  1
