# generated using pymatgen
data_Sm2CdHgGe
_symmetry_space_group_name_H-M   'P 1'
_cell_length_a   5.09119950
_cell_length_b   8.34116932
_cell_length_c   6.36343070
_cell_angle_alpha   77.74050468
_cell_angle_beta   89.67065483
_cell_angle_gamma   72.52726093
_symmetry_Int_Tables_number   1
_chemical_formula_structural   Sm2CdHgGe
_chemical_formula_sum   'Sm4 Cd2 Hg2 Ge2'
_cell_volume   251.39810799
_cell_formula_units_Z   2
loop_
 _symmetry_equiv_pos_site_id
 _symmetry_equiv_pos_as_xyz
  1  'x, y, z'
loop_
 _atom_site_type_symbol
 _atom_site_label
 _atom_site_symmetry_multiplicity
 _atom_site_fract_x
 _atom_site_fract_y
 _atom_site_fract_z
 _atom_site_occupancy
  Sm  Sm0  1  0.99105932  0.66494752  0.20407944  1
  Sm  Sm1  1  0.39927080  0.84127811  0.76300060  1
  Sm  Sm2  1  0.17983046  0.28327215  0.85191776  1
  Sm  Sm3  1  0.78648023  0.07412073  0.42287385  1
  Cd  Cd4  1  0.58194791  0.48261847  0.54370564  1
  Cd  Cd5  1  0.60070094  0.44275971  0.06630870  1
  Hg  Hg6  1  0.37456266  0.90047923  0.24131185  1
  Hg  Hg7  1  0.18515731  0.27898577  0.36034611  1
  Ge  Ge8  1  0.98777782  0.66636997  0.67864427  1
  Ge  Ge9  1  0.78971736  0.05658554  0.90890784  1
