# generated using pymatgen
data_Sm2YCo
_symmetry_space_group_name_H-M   'P 1'
_cell_length_a   4.59242119
_cell_length_b   4.59668218
_cell_length_c   4.85390209
_cell_angle_alpha   89.95613089
_cell_angle_beta   89.45288263
_cell_angle_gamma   89.96811967
_symmetry_Int_Tables_number   1
_chemical_formula_structural   Sm2YCo
_chemical_formula_sum   'Sm2 Y1 Co1'
_cell_volume   102.46067394
_cell_formula_units_Z   1
loop_
 _symmetry_equiv_pos_site_id
 _symmetry_equiv_pos_as_xyz
  1  'x, y, z'
loop_
 _atom_site_type_symbol
 _atom_site_label
 _atom_site_symmetry_multiplicity
 _atom_site_fract_x
 _atom_site_fract_y
 _atom_site_fract_z
 _atom_site_occupancy
  Sm  Sm0  1  0.93990755  0.12148902  0.09467467  1
  Sm  Sm1  1  0.43563760  0.62498503  0.10010861  1
  Y  Y2  1  0.44533998  0.12833266  0.59658892  1
  Co  Co3  1  0.93844862  0.62915823  0.59441923  1
