# generated using pymatgen
data_Sm3Lu3Ge2
_symmetry_space_group_name_H-M   'P 1'
_cell_length_a   4.89985302
_cell_length_b   6.74445291
_cell_length_c   7.86447335
_cell_angle_alpha   83.62253339
_cell_angle_beta   71.83559976
_cell_angle_gamma   68.68203850
_symmetry_Int_Tables_number   1
_chemical_formula_structural   Sm3Lu3Ge2
_chemical_formula_sum   'Sm3 Lu3 Ge2'
_cell_volume   230.04689298
_cell_formula_units_Z   1
loop_
 _symmetry_equiv_pos_site_id
 _symmetry_equiv_pos_as_xyz
  1  'x, y, z'
loop_
 _atom_site_type_symbol
 _atom_site_label
 _atom_site_symmetry_multiplicity
 _atom_site_fract_x
 _atom_site_fract_y
 _atom_site_fract_z
 _atom_site_occupancy
  Sm  Sm0  1  -0.00931655  0.36783658  0.08736494  1
  Sm  Sm1  1  0.31152287  0.37304054  0.44119639  1
  Sm  Sm2  1  0.03048153  0.94620178  0.42959162  1
  Lu  Lu3  1  0.37488563  0.92476836  0.76333129  1
  Lu  Lu4  1  0.70223373  0.94447786  0.08783906  1
  Lu  Lu5  1  0.64732993  0.38034175  0.76095654  1
  Ge  Ge6  1  0.99420408  0.66327412  0.78458434  1
  Ge  Ge7  1  0.68132182  0.66425581  0.41060062  1
