# generated using pymatgen
data_SmGa2CoCu2
_symmetry_space_group_name_H-M   'P 1'
_cell_length_a   4.01470895
_cell_length_b   4.84526232
_cell_length_c   5.19615959
_cell_angle_alpha   89.75123940
_cell_angle_beta   89.94822208
_cell_angle_gamma   90.03022066
_symmetry_Int_Tables_number   1
_chemical_formula_structural   SmGa2CoCu2
_chemical_formula_sum   'Sm1 Ga2 Co1 Cu2'
_cell_volume   101.07634043
_cell_formula_units_Z   1
loop_
 _symmetry_equiv_pos_site_id
 _symmetry_equiv_pos_as_xyz
  1  'x, y, z'
loop_
 _atom_site_type_symbol
 _atom_site_label
 _atom_site_symmetry_multiplicity
 _atom_site_fract_x
 _atom_site_fract_y
 _atom_site_fract_z
 _atom_site_occupancy
  Sm  Sm0  1  0.42044035  0.92990227  0.77679629  1
  Ga  Ga1  1  0.92017305  0.40126862  0.52511920  1
  Ga  Ga2  1  0.91995830  0.40485581  0.02239949  1
  Co  Co3  1  0.42074900  0.19174034  0.27484489  1
  Cu  Cu4  1  0.92012864  0.91929747  0.27168538  1
  Cu  Cu5  1  0.41961422  0.66324898  0.27884215  1
