# generated using pymatgen
data_SmMnNi2Ge
_symmetry_space_group_name_H-M   'P 1'
_cell_length_a   3.91547130
_cell_length_b   3.88595935
_cell_length_c   5.39421730
_cell_angle_alpha   89.97466628
_cell_angle_beta   89.97665515
_cell_angle_gamma   89.79047630
_symmetry_Int_Tables_number   1
_chemical_formula_structural   SmMnNi2Ge
_chemical_formula_sum   'Sm1 Mn1 Ni2 Ge1'
_cell_volume   82.07440710
_cell_formula_units_Z   1
loop_
 _symmetry_equiv_pos_site_id
 _symmetry_equiv_pos_as_xyz
  1  'x, y, z'
loop_
 _atom_site_type_symbol
 _atom_site_label
 _atom_site_symmetry_multiplicity
 _atom_site_fract_x
 _atom_site_fract_y
 _atom_site_fract_z
 _atom_site_occupancy
  Sm  Sm0  1  0.63879420  0.98406706  0.43989717  1
  Mn  Mn1  1  0.63905367  0.48447661  0.91092632  1
  Ni  Ni2  1  0.14198241  0.98426918  0.92667842  1
  Ni  Ni3  1  0.13873663  0.48399220  0.63947289  1
  Ge  Ge4  1  0.13871705  0.48406711  0.19657736  1
