# generated using pymatgen
data_SmY3MgTe6Se
_symmetry_space_group_name_H-M   'P 1'
_cell_length_a   4.24984467
_cell_length_b   7.22177727
_cell_length_c   12.78689812
_cell_angle_alpha   102.17804817
_cell_angle_beta   89.98175171
_cell_angle_gamma   107.18454448
_symmetry_Int_Tables_number   1
_chemical_formula_structural   SmY3MgTe6Se
_chemical_formula_sum   'Sm1 Y3 Mg1 Te6 Se1'
_cell_volume   365.68269781
_cell_formula_units_Z   1
loop_
 _symmetry_equiv_pos_site_id
 _symmetry_equiv_pos_as_xyz
  1  'x, y, z'
loop_
 _atom_site_type_symbol
 _atom_site_label
 _atom_site_symmetry_multiplicity
 _atom_site_fract_x
 _atom_site_fract_y
 _atom_site_fract_z
 _atom_site_occupancy
  Sm  Sm0  1  0.96575925  0.85488875  0.61711920  1
  Y  Y1  1  0.69145421  0.29934640  0.40697261  1
  Y  Y2  1  0.06918985  0.05766901  0.09162848  1
  Y  Y3  1  0.77278935  0.46903156  0.85975752  1
  Mg  Mg4  1  0.37814294  0.67387691  0.25721502  1
  Te  Te5  1  0.40677435  0.73313531  0.03922595  1
  Te  Te6  1  0.37157448  0.66717108  0.74354192  1
  Te  Te7  1  0.72673970  0.37189552  0.17559522  1
  Te  Te8  1  0.63243127  0.18718951  0.62117102  1
  Te  Te9  1  0.11375883  0.15173273  0.87198848  1
  Te  Te10  1  0.02869694  0.97442758  0.32972243  1
  Se  Se11  1  0.33676194  0.59076928  0.45242462  1
