# generated using pymatgen
data_Sr2PtPb
_symmetry_space_group_name_H-M   'P 1'
_cell_length_a   5.03228968
_cell_length_b   5.32848842
_cell_length_c   5.70201605
_cell_angle_alpha   62.40618493
_cell_angle_beta   63.82892035
_cell_angle_gamma   90.17556641
_symmetry_Int_Tables_number   1
_chemical_formula_structural   Sr2PtPb
_chemical_formula_sum   'Sr2 Pt1 Pb1'
_cell_volume   117.40797236
_cell_formula_units_Z   1
loop_
 _symmetry_equiv_pos_site_id
 _symmetry_equiv_pos_as_xyz
  1  'x, y, z'
loop_
 _atom_site_type_symbol
 _atom_site_label
 _atom_site_symmetry_multiplicity
 _atom_site_fract_x
 _atom_site_fract_y
 _atom_site_fract_z
 _atom_site_occupancy
  Sr  Sr0  1  0.25424608  0.36545156  0.42516262  1
  Sr  Sr1  1  0.77432542  0.88792135  0.38463953  1
  Pt  Pt2  1  0.51424699  0.13554935  0.90419357  1
  Pb  Pb3  1  0.01465440  0.62603862  0.90453798  1
