# generated using pymatgen
data_SrAcPdSeI
_symmetry_space_group_name_H-M   'P 1'
_cell_length_a   4.46220163
_cell_length_b   6.21862558
_cell_length_c   6.03478105
_cell_angle_alpha   94.74781024
_cell_angle_beta   85.29147094
_cell_angle_gamma   110.63550284
_symmetry_Int_Tables_number   1
_chemical_formula_structural   SrAcPdSeI
_chemical_formula_sum   'Sr1 Ac1 Pd1 Se1 I1'
_cell_volume   155.92450331
_cell_formula_units_Z   1
loop_
 _symmetry_equiv_pos_site_id
 _symmetry_equiv_pos_as_xyz
  1  'x, y, z'
loop_
 _atom_site_type_symbol
 _atom_site_label
 _atom_site_symmetry_multiplicity
 _atom_site_fract_x
 _atom_site_fract_y
 _atom_site_fract_z
 _atom_site_occupancy
  Sr  Sr0  1  0.88155687  0.58741789  0.56087673  1
  Ac  Ac1  1  0.59479230  0.04619814  0.08106761  1
  Pd  Pd2  1  0.30178304  0.44344853  0.01038709  1
  Se  Se3  1  0.89968195  0.65319951  0.06287600  1
  I  I4  1  0.16079771  0.15365209  0.58186057  1
