# generated using pymatgen
data_SrCuO2
_symmetry_space_group_name_H-M   'P 1'
_cell_length_a   3.70042862
_cell_length_b   3.68082909
_cell_length_c   4.78331125
_cell_angle_alpha   78.53012601
_cell_angle_beta   78.71944126
_cell_angle_gamma   72.37086660
_symmetry_Int_Tables_number   1
_chemical_formula_structural   SrCuO2
_chemical_formula_sum   'Sr1 Cu1 O2'
_cell_volume   60.20931629
_cell_formula_units_Z   1
loop_
 _symmetry_equiv_pos_site_id
 _symmetry_equiv_pos_as_xyz
  1  'x, y, z'
loop_
 _atom_site_type_symbol
 _atom_site_label
 _atom_site_symmetry_multiplicity
 _atom_site_fract_x
 _atom_site_fract_y
 _atom_site_fract_z
 _atom_site_occupancy
  Sr  Sr0  1  0.84604633  0.12014015  0.70367541  1
  Cu  Cu1  1  0.34623759  0.61989037  0.20375322  1
  O  O2  1  0.52726785  0.80567188  0.44807674  1
  O  O3  1  0.16465741  0.43450832  -0.04036948  1
