# generated using pymatgen
data_SrNbTl3
_symmetry_space_group_name_H-M   'P 1'
_cell_length_a   5.60479824
_cell_length_b   5.60307804
_cell_length_c   7.11624327
_cell_angle_alpha   50.24810760
_cell_angle_beta   107.26660549
_cell_angle_gamma   101.22393681
_symmetry_Int_Tables_number   1
_chemical_formula_structural   SrNbTl3
_chemical_formula_sum   'Sr1 Nb1 Tl3'
_cell_volume   164.06895755
_cell_formula_units_Z   1
loop_
 _symmetry_equiv_pos_site_id
 _symmetry_equiv_pos_as_xyz
  1  'x, y, z'
loop_
 _atom_site_type_symbol
 _atom_site_label
 _atom_site_symmetry_multiplicity
 _atom_site_fract_x
 _atom_site_fract_y
 _atom_site_fract_z
 _atom_site_occupancy
  Sr  Sr0  1  0.34677628  0.93537468  0.45163765  1
  Nb  Nb1  1  0.88224516  0.04882304  0.87446136  1
  Tl  Tl2  1  0.39225141  0.07251682  0.89272784  1
  Tl  Tl3  1  -0.07460564  0.53700426  0.89676210  1
  Tl  Tl4  1  0.82662780  0.50950293  0.35574522  1
