# generated using pymatgen
data_Ta3Te2PSeS
_symmetry_space_group_name_H-M   'P 1'
_cell_length_a   3.43100018
_cell_length_b   5.53478323
_cell_length_c   10.71400902
_cell_angle_alpha   104.73687507
_cell_angle_beta   99.03195432
_cell_angle_gamma   90.00169647
_symmetry_Int_Tables_number   1
_chemical_formula_structural   Ta3Te2PSeS
_chemical_formula_sum   'Ta3 Te2 P1 Se1 S1'
_cell_volume   194.15458303
_cell_formula_units_Z   1
loop_
 _symmetry_equiv_pos_site_id
 _symmetry_equiv_pos_as_xyz
  1  'x, y, z'
loop_
 _atom_site_type_symbol
 _atom_site_label
 _atom_site_symmetry_multiplicity
 _atom_site_fract_x
 _atom_site_fract_y
 _atom_site_fract_z
 _atom_site_occupancy
  Ta  Ta0  1  0.27014765  0.71325376  0.30890990  1
  Ta  Ta1  1  0.11045764  0.53812609  0.98276060  1
  Ta  Ta2  1  0.69429019  0.28783987  0.15109552  1
  Te  Te3  1  0.87476158  0.87181585  0.52235066  1
  Te  Te4  1  0.50734429  0.49712095  0.77208362  1
  P  P5  1  0.68908280  0.76255031  0.14344436  1
  Se  Se6  1  0.28415976  0.26466540  0.33427440  1
  S  S7  1  0.11204140  0.10547262  -0.01688225  1
