# generated using pymatgen
data_Tb2Al5FeB2
_symmetry_space_group_name_H-M   'P 1'
_cell_length_a   3.55577552
_cell_length_b   3.54607318
_cell_length_c   12.88942558
_cell_angle_alpha   90.01039366
_cell_angle_beta   90.04678613
_cell_angle_gamma   89.98745373
_symmetry_Int_Tables_number   1
_chemical_formula_structural   Tb2Al5FeB2
_chemical_formula_sum   'Tb2 Al5 Fe1 B2'
_cell_volume   162.52322470
_cell_formula_units_Z   1
loop_
 _symmetry_equiv_pos_site_id
 _symmetry_equiv_pos_as_xyz
  1  'x, y, z'
loop_
 _atom_site_type_symbol
 _atom_site_label
 _atom_site_symmetry_multiplicity
 _atom_site_fract_x
 _atom_site_fract_y
 _atom_site_fract_z
 _atom_site_occupancy
  Tb  Tb0  1  0.59921759  0.66413292  0.45149598  1
  Tb  Tb1  1  0.09657087  0.16383737  0.06595644  1
  Al  Al2  1  0.09704846  0.16354501  0.81696587  1
  Al  Al3  1  0.59929333  0.66385003  0.70149067  1
  Al  Al4  1  0.59640755  0.66362705  0.91265313  1
  Al  Al5  1  0.09774022  0.66407690  0.25821466  1
  Al  Al6  1  0.09960750  0.16409245  0.60575258  1
  Fe  Fe7  1  0.59770211  0.16410606  0.25894316  1
  B  B8  1  0.59739988  0.66405680  0.16672137  1
  B  B9  1  0.09830659  0.16417093  0.35010993  1
