# generated using pymatgen
data_Tb3AlTlAgAu2
_symmetry_space_group_name_H-M   'P 1'
_cell_length_a   4.54912236
_cell_length_b   5.77980497
_cell_length_c   7.98518742
_cell_angle_alpha   77.80196133
_cell_angle_beta   89.99183819
_cell_angle_gamma   113.17405948
_symmetry_Int_Tables_number   1
_chemical_formula_structural   Tb3AlTlAgAu2
_chemical_formula_sum   'Tb3 Al1 Tl1 Ag1 Au2'
_cell_volume   187.84445552
_cell_formula_units_Z   1
loop_
 _symmetry_equiv_pos_site_id
 _symmetry_equiv_pos_as_xyz
  1  'x, y, z'
loop_
 _atom_site_type_symbol
 _atom_site_label
 _atom_site_symmetry_multiplicity
 _atom_site_fract_x
 _atom_site_fract_y
 _atom_site_fract_z
 _atom_site_occupancy
  Tb  Tb0  1  0.22966367  0.10354959  0.17562626  1
  Tb  Tb1  1  0.51733811  0.67727848  0.81563701  1
  Tb  Tb2  1  0.95390655  0.54855124  0.49251860  1
  Al  Al3  1  0.93680456  0.51612807  0.11657468  1
  Tl  Tl4  1  0.23292955  0.10800768  0.67083703  1
  Ag  Ag5  1  0.79641737  0.23811461  0.88619270  1
  Au  Au6  1  0.52350119  0.69068743  0.18908939  1
  Au  Au7  1  0.68212945  0.00796029  0.43218241  1
