# generated using pymatgen
data_TbBiBrClF2
_symmetry_space_group_name_H-M   'P 1'
_cell_length_a   3.92499814
_cell_length_b   3.92472174
_cell_length_c   9.17538562
_cell_angle_alpha   89.32694585
_cell_angle_beta   88.69735583
_cell_angle_gamma   87.70397184
_symmetry_Int_Tables_number   1
_chemical_formula_structural   TbBiBrClF2
_chemical_formula_sum   'Tb1 Bi1 Br1 Cl1 F2'
_cell_volume   141.18418267
_cell_formula_units_Z   1
loop_
 _symmetry_equiv_pos_site_id
 _symmetry_equiv_pos_as_xyz
  1  'x, y, z'
loop_
 _atom_site_type_symbol
 _atom_site_label
 _atom_site_symmetry_multiplicity
 _atom_site_fract_x
 _atom_site_fract_y
 _atom_site_fract_z
 _atom_site_occupancy
  Tb  Tb0  1  0.21294547  0.51893131  0.32069605  1
  Bi  Bi1  1  0.70006017  0.00647761  0.76417957  1
  Br  Br2  1  0.19633951  0.50507148  0.89529121  1
  Cl  Cl3  1  0.69692343  0.00179200  0.17016820  1
  F  F4  1  0.70568760  0.50981764  0.42676070  1
  F  F5  1  0.19965133  0.01499316  0.42696939  1
