# generated using pymatgen
data_TbHo2AlO6
_symmetry_space_group_name_H-M   'P 1'
_cell_length_a   3.83384492
_cell_length_b   3.84271405
_cell_length_c   8.75163709
_cell_angle_alpha   89.95990900
_cell_angle_beta   90.23505472
_cell_angle_gamma   89.97313430
_symmetry_Int_Tables_number   1
_chemical_formula_structural   TbHo2AlO6
_chemical_formula_sum   'Tb1 Ho2 Al1 O6'
_cell_volume   128.93122259
_cell_formula_units_Z   1
loop_
 _symmetry_equiv_pos_site_id
 _symmetry_equiv_pos_as_xyz
  1  'x, y, z'
loop_
 _atom_site_type_symbol
 _atom_site_label
 _atom_site_symmetry_multiplicity
 _atom_site_fract_x
 _atom_site_fract_y
 _atom_site_fract_z
 _atom_site_occupancy
  Tb  Tb0  1  0.22970360  0.70776932  0.62082096  1
  Ho  Ho1  1  0.23586993  0.70605089  0.16474629  1
  Ho  Ho2  1  0.73267102  0.20679914  0.89425473  1
  Al  Al3  1  0.73320436  0.20764539  0.38928459  1
  O  O4  1  0.73037571  0.70742381  0.73834741  1
  O  O5  1  0.73515596  0.70568782  0.05451437  1
  O  O6  1  0.23549474  0.20591878  0.05299136  1
  O  O7  1  0.73325508  0.70814318  0.39349021  1
  O  O8  1  0.22964246  0.20761584  0.73536057  1
  O  O9  1  0.23317441  0.20811282  0.39018050  1
