# generated using pymatgen
data_TbTmGa2
_symmetry_space_group_name_H-M   'P 1'
_cell_length_a   5.03349547
_cell_length_b   5.03260091
_cell_length_c   5.03219043
_cell_angle_alpha   60.04660467
_cell_angle_beta   60.02673901
_cell_angle_gamma   59.87132947
_symmetry_Int_Tables_number   1
_chemical_formula_structural   TbTmGa2
_chemical_formula_sum   'Tb1 Tm1 Ga2'
_cell_volume   90.09903844
_cell_formula_units_Z   1
loop_
 _symmetry_equiv_pos_site_id
 _symmetry_equiv_pos_as_xyz
  1  'x, y, z'
loop_
 _atom_site_type_symbol
 _atom_site_label
 _atom_site_symmetry_multiplicity
 _atom_site_fract_x
 _atom_site_fract_y
 _atom_site_fract_z
 _atom_site_occupancy
  Tb  Tb0  1  0.03011554  0.13088013  0.19650976  1
  Tm  Tm1  1  0.53013776  0.63091881  0.69657076  1
  Ga  Ga2  1  0.27948718  0.38107978  0.44611193  1
  Ga  Ga3  1  0.78042846  0.88097605  0.94604275  1
