# generated using pymatgen
data_TiAgO4
_symmetry_space_group_name_H-M   'P 1'
_cell_length_a   4.03805566
_cell_length_b   4.01359053
_cell_length_c   5.39510606
_cell_angle_alpha   68.59454348
_cell_angle_beta   70.17092964
_cell_angle_gamma   90.50689614
_symmetry_Int_Tables_number   1
_chemical_formula_structural   TiAgO4
_chemical_formula_sum   'Ti1 Ag1 O4'
_cell_volume   75.69738308
_cell_formula_units_Z   1
loop_
 _symmetry_equiv_pos_site_id
 _symmetry_equiv_pos_as_xyz
  1  'x, y, z'
loop_
 _atom_site_type_symbol
 _atom_site_label
 _atom_site_symmetry_multiplicity
 _atom_site_fract_x
 _atom_site_fract_y
 _atom_site_fract_z
 _atom_site_occupancy
  Ti  Ti0  1  0.84601417  0.85405174  0.13055892  1
  Ag  Ag1  1  0.54618424  0.10276550  0.62931220  1
  O  O2  1  0.59509140  0.64600610  0.54181049  1
  O  O3  1  0.33978438  0.88217211  0.06868140  1
  O  O4  1  0.78440904  0.31894542  0.19403771  1
  O  O5  1  0.00225349  0.05935778  0.71906627  1
