# generated using pymatgen
data_TiZnO2
_symmetry_space_group_name_H-M   'P 1'
_cell_length_a   2.93045738
_cell_length_b   2.92759071
_cell_length_c   7.10892752
_cell_angle_alpha   78.92564668
_cell_angle_beta   79.11948060
_cell_angle_gamma   59.98322321
_symmetry_Int_Tables_number   1
_chemical_formula_structural   TiZnO2
_chemical_formula_sum   'Ti1 Zn1 O2'
_cell_volume   51.51641078
_cell_formula_units_Z   1
loop_
 _symmetry_equiv_pos_site_id
 _symmetry_equiv_pos_as_xyz
  1  'x, y, z'
loop_
 _atom_site_type_symbol
 _atom_site_label
 _atom_site_symmetry_multiplicity
 _atom_site_fract_x
 _atom_site_fract_y
 _atom_site_fract_z
 _atom_site_occupancy
  Ti  Ti0  1  0.24902249  0.92901989  0.02721367  1
  Zn  Zn1  1  0.74674021  0.42951995  0.52728832  1
  O  O2  1  0.86784446  0.54881586  0.18048544  1
  O  O3  1  0.62980689  0.30987212  0.87388506  1
