# generated using pymatgen
data_Tl2Ag3SnS4
_symmetry_space_group_name_H-M   'P 1'
_cell_length_a   4.94198489
_cell_length_b   7.44302113
_cell_length_c   7.32719773
_cell_angle_alpha   91.93535556
_cell_angle_beta   88.41903200
_cell_angle_gamma   91.93245251
_symmetry_Int_Tables_number   1
_chemical_formula_structural   Tl2Ag3SnS4
_chemical_formula_sum   'Tl2 Ag3 Sn1 S4'
_cell_volume   269.11715338
_cell_formula_units_Z   1
loop_
 _symmetry_equiv_pos_site_id
 _symmetry_equiv_pos_as_xyz
  1  'x, y, z'
loop_
 _atom_site_type_symbol
 _atom_site_label
 _atom_site_symmetry_multiplicity
 _atom_site_fract_x
 _atom_site_fract_y
 _atom_site_fract_z
 _atom_site_occupancy
  Tl  Tl0  1  0.32584539  0.47285731  0.83556905  1
  Tl  Tl1  1  0.85716584  0.96584774  0.80614969  1
  Ag  Ag2  1  0.06047716  0.56173647  0.42328630  1
  Ag  Ag3  1  0.56105326  0.34998679  0.28294784  1
  Ag  Ag4  1  0.06107339  0.15004010  0.37213432  1
  Sn  Sn5  1  0.64982087  0.88680477  0.30756457  1
  S  S6  1  0.80760038  0.31641718  0.60222691  1
  S  S7  1  0.78018092  0.61575394  0.12388552  1
  S  S8  1  0.33998953  0.80785983  0.56776614  1
  S  S9  1  0.35845264  0.07501019  0.11365020  1
