# generated using pymatgen
data_TlCu2SnS4
_symmetry_space_group_name_H-M   'P 1'
_cell_length_a   5.80115198
_cell_length_b   5.77819539
_cell_length_c   5.54575861
_cell_angle_alpha   90.34246628
_cell_angle_beta   90.21365152
_cell_angle_gamma   89.89266974
_symmetry_Int_Tables_number   1
_chemical_formula_structural   TlCu2SnS4
_chemical_formula_sum   'Tl1 Cu2 Sn1 S4'
_cell_volume   185.88994884
_cell_formula_units_Z   1
loop_
 _symmetry_equiv_pos_site_id
 _symmetry_equiv_pos_as_xyz
  1  'x, y, z'
loop_
 _atom_site_type_symbol
 _atom_site_label
 _atom_site_symmetry_multiplicity
 _atom_site_fract_x
 _atom_site_fract_y
 _atom_site_fract_z
 _atom_site_occupancy
  Tl  Tl0  1  0.12613797  0.13451964  0.63140284  1
  Cu  Cu1  1  0.12056539  0.63447003  0.13405612  1
  Cu  Cu2  1  0.62302494  0.13410412  0.13454797  1
  Sn  Sn3  1  0.62373936  0.63401693  0.63531065  1
  S  S4  1  0.86088512  0.87363346  0.34202439  1
  S  S5  1  0.38334802  0.39587612  0.33983678  1
  S  S6  1  0.38139990  0.87315181  0.92815427  1
  S  S7  1  0.86254966  0.39207900  0.92658453  1
