# generated using pymatgen
data_TlHgBr2F
_symmetry_space_group_name_H-M   'P 1'
_cell_length_a   4.25723314
_cell_length_b   5.64879211
_cell_length_c   6.47387734
_cell_angle_alpha   94.26197043
_cell_angle_beta   100.36824009
_cell_angle_gamma   89.45938046
_symmetry_Int_Tables_number   1
_chemical_formula_structural   TlHgBr2F
_chemical_formula_sum   'Tl1 Hg1 Br2 F1'
_cell_volume   152.71841267
_cell_formula_units_Z   1
loop_
 _symmetry_equiv_pos_site_id
 _symmetry_equiv_pos_as_xyz
  1  'x, y, z'
loop_
 _atom_site_type_symbol
 _atom_site_label
 _atom_site_symmetry_multiplicity
 _atom_site_fract_x
 _atom_site_fract_y
 _atom_site_fract_z
 _atom_site_occupancy
  Tl  Tl0  1  0.48271077  0.77369610  0.94206829  1
  Hg  Hg1  1  0.75818326  0.33156226  0.48099586  1
  Br  Br2  1  0.87493185  0.84795624  0.58334428  1
  Br  Br3  1  0.08725438  0.31113876  0.18652696  1
  F  F4  1  0.46787573  0.37754215  0.72283282  1
