# generated using pymatgen
data_Tm2MgS5
_symmetry_space_group_name_H-M   'P 1'
_cell_length_a   6.13959099
_cell_length_b   5.39920515
_cell_length_c   7.36389089
_cell_angle_alpha   68.39715064
_cell_angle_beta   81.59724040
_cell_angle_gamma   63.69531257
_symmetry_Int_Tables_number   1
_chemical_formula_structural   Tm2MgS5
_chemical_formula_sum   'Tm2 Mg1 S5'
_cell_volume   203.41463181
_cell_formula_units_Z   1
loop_
 _symmetry_equiv_pos_site_id
 _symmetry_equiv_pos_as_xyz
  1  'x, y, z'
loop_
 _atom_site_type_symbol
 _atom_site_label
 _atom_site_symmetry_multiplicity
 _atom_site_fract_x
 _atom_site_fract_y
 _atom_site_fract_z
 _atom_site_occupancy
  Tm  Tm0  1  0.39128768  0.89270068  0.54552840  1
  Tm  Tm1  1  0.45064150  0.13870535  0.98727551  1
  Mg  Mg2  1  0.14951185  0.64538061  0.29511286  1
  S  S3  1  -0.00091931  0.96234191  0.79119555  1
  S  S4  1  0.72148530  0.85040270  0.28555168  1
  S  S5  1  0.33580954  0.71355101  0.95216499  1
  S  S6  1  0.42632140  0.35124100  0.59020333  1
  S  S7  1  0.10878703  0.18141901  0.24375153  1
