# generated using pymatgen
data_TmTiPd2
_symmetry_space_group_name_H-M   'P 1'
_cell_length_a   4.68841662
_cell_length_b   4.71420356
_cell_length_c   4.68965434
_cell_angle_alpha   59.84700684
_cell_angle_beta   60.81186014
_cell_angle_gamma   59.97375510
_symmetry_Int_Tables_number   1
_chemical_formula_structural   TmTiPd2
_chemical_formula_sum   'Tm1 Ti1 Pd2'
_cell_volume   73.63026016
_cell_formula_units_Z   1
loop_
 _symmetry_equiv_pos_site_id
 _symmetry_equiv_pos_as_xyz
  1  'x, y, z'
loop_
 _atom_site_type_symbol
 _atom_site_label
 _atom_site_symmetry_multiplicity
 _atom_site_fract_x
 _atom_site_fract_y
 _atom_site_fract_z
 _atom_site_occupancy
  Tm  Tm0  1  0.37773671  0.06195451  0.31668697  1
  Ti  Ti1  1  0.87757200  0.56211077  0.81784029  1
  Pd  Pd2  1  0.12472852  0.81463257  0.06459941  1
  Pd  Pd3  1  0.63115059  0.31019416  0.56778266  1
