# generated using pymatgen
data_U2CdPb
_symmetry_space_group_name_H-M   'P 1'
_cell_length_a   5.33492537
_cell_length_b   5.34644910
_cell_length_c   5.40376303
_cell_angle_alpha   59.65776544
_cell_angle_beta   59.73865632
_cell_angle_gamma   60.72954701
_symmetry_Int_Tables_number   1
_chemical_formula_structural   U2CdPb
_chemical_formula_sum   'U2 Cd1 Pb1'
_cell_volume   109.06702054
_cell_formula_units_Z   1
loop_
 _symmetry_equiv_pos_site_id
 _symmetry_equiv_pos_as_xyz
  1  'x, y, z'
loop_
 _atom_site_type_symbol
 _atom_site_label
 _atom_site_symmetry_multiplicity
 _atom_site_fract_x
 _atom_site_fract_y
 _atom_site_fract_z
 _atom_site_occupancy
  U  U0  1  0.47531206  0.27221573  0.93694431  1
  U  U1  1  0.97513624  0.77104327  0.43673010  1
  Cd  Cd2  1  0.72476653  0.52291711  0.18572526  1
  Pb  Pb3  1  0.22533632  0.02113739  0.68736881  1
