# generated using pymatgen
data_UCu4Sb2As
_symmetry_space_group_name_H-M   'P 1'
_cell_length_a   4.31596567
_cell_length_b   5.07976108
_cell_length_c   7.31369970
_cell_angle_alpha   92.81556332
_cell_angle_beta   109.01584552
_cell_angle_gamma   90.55601151
_symmetry_Int_Tables_number   1
_chemical_formula_structural   UCu4Sb2As
_chemical_formula_sum   'U1 Cu4 Sb2 As1'
_cell_volume   151.35664015
_cell_formula_units_Z   1
loop_
 _symmetry_equiv_pos_site_id
 _symmetry_equiv_pos_as_xyz
  1  'x, y, z'
loop_
 _atom_site_type_symbol
 _atom_site_label
 _atom_site_symmetry_multiplicity
 _atom_site_fract_x
 _atom_site_fract_y
 _atom_site_fract_z
 _atom_site_occupancy
  U  U0  1  0.80501883  0.52144918  0.77963697  1
  Cu  Cu1  1  0.15660171  0.27510005  0.48643966  1
  Cu  Cu2  1  0.47221125  0.69907272  0.11014773  1
  Cu  Cu3  1  0.16685144  0.74364609  0.52067759  1
  Cu  Cu4  1  0.97221605  0.01284892  0.09735768  1
  Sb  Sb5  1  0.62290049  0.00755501  0.43247409  1
  Sb  Sb6  1  0.33518153  0.04581021  0.84483855  1
  As  As7  1  0.00656176  0.49860059  0.18230773  1
