# generated using pymatgen
data_VGaCoSb2
_symmetry_space_group_name_H-M   'P 1'
_cell_length_a   4.06720766
_cell_length_b   4.13164264
_cell_length_c   5.80240510
_cell_angle_alpha   89.92534764
_cell_angle_beta   90.18590235
_cell_angle_gamma   89.94402443
_symmetry_Int_Tables_number   1
_chemical_formula_structural   VGaCoSb2
_chemical_formula_sum   'V1 Ga1 Co1 Sb2'
_cell_volume   97.50441496
_cell_formula_units_Z   1
loop_
 _symmetry_equiv_pos_site_id
 _symmetry_equiv_pos_as_xyz
  1  'x, y, z'
loop_
 _atom_site_type_symbol
 _atom_site_label
 _atom_site_symmetry_multiplicity
 _atom_site_fract_x
 _atom_site_fract_y
 _atom_site_fract_z
 _atom_site_occupancy
  V  V0  1  0.40760240  0.53865696  0.99328822  1
  Ga  Ga1  1  0.91619377  0.04069390  0.44891518  1
  Co  Co2  1  0.90817488  0.53960171  0.21969785  1
  Sb  Sb3  1  0.90626691  0.03950353  0.93895300  1
  Sb  Sb4  1  0.41155132  0.54201734  0.50091760  1
