# generated using pymatgen
data_VZnPW
_symmetry_space_group_name_H-M   'P 1'
_cell_length_a   3.23952901
_cell_length_b   3.23488660
_cell_length_c   5.35917755
_cell_angle_alpha   90.83764582
_cell_angle_beta   91.04876451
_cell_angle_gamma   89.65543950
_symmetry_Int_Tables_number   1
_chemical_formula_structural   VZnPW
_chemical_formula_sum   'V1 Zn1 P1 W1'
_cell_volume   56.14521300
_cell_formula_units_Z   1
loop_
 _symmetry_equiv_pos_site_id
 _symmetry_equiv_pos_as_xyz
  1  'x, y, z'
loop_
 _atom_site_type_symbol
 _atom_site_label
 _atom_site_symmetry_multiplicity
 _atom_site_fract_x
 _atom_site_fract_y
 _atom_site_fract_z
 _atom_site_occupancy
  V  V0  1  0.13478544  0.51057153  0.43345492  1
  Zn  Zn1  1  0.62995604  0.00697303  0.19440230  1
  P  P2  1  0.12937240  0.50705973  0.92625108  1
  W  W3  1  0.60878391  -0.00919579  0.69200486  1
