# generated using pymatgen
data_YLuTlAu
_symmetry_space_group_name_H-M   'P 1'
_cell_length_a   3.85275516
_cell_length_b   3.85241270
_cell_length_c   8.01354262
_cell_angle_alpha   89.64137813
_cell_angle_beta   90.35394250
_cell_angle_gamma   113.02006616
_symmetry_Int_Tables_number   1
_chemical_formula_structural   YLuTlAu
_chemical_formula_sum   'Y1 Lu1 Tl1 Au1'
_cell_volume   109.46573153
_cell_formula_units_Z   1
loop_
 _symmetry_equiv_pos_site_id
 _symmetry_equiv_pos_as_xyz
  1  'x, y, z'
loop_
 _atom_site_type_symbol
 _atom_site_label
 _atom_site_symmetry_multiplicity
 _atom_site_fract_x
 _atom_site_fract_y
 _atom_site_fract_z
 _atom_site_occupancy
  Y  Y0  1  0.65483075  0.70590554  0.47279673  1
  Lu  Lu1  1  0.37299223  -0.01219063  0.91296517  1
  Tl  Tl2  1  0.01332350  0.34744629  0.18969402  1
  Au  Au3  1  0.01366683  0.34710169  0.70267616  1
