# generated using pymatgen
data_YThZrFe3P4
_symmetry_space_group_name_H-M   'P 1'
_cell_length_a   3.62257638
_cell_length_b   5.25786512
_cell_length_c   9.05703989
_cell_angle_alpha   92.60883776
_cell_angle_beta   89.98264652
_cell_angle_gamma   90.23287883
_symmetry_Int_Tables_number   1
_chemical_formula_structural   YThZrFe3P4
_chemical_formula_sum   'Y1 Th1 Zr1 Fe3 P4'
_cell_volume   172.32938142
_cell_formula_units_Z   1
loop_
 _symmetry_equiv_pos_site_id
 _symmetry_equiv_pos_as_xyz
  1  'x, y, z'
loop_
 _atom_site_type_symbol
 _atom_site_label
 _atom_site_symmetry_multiplicity
 _atom_site_fract_x
 _atom_site_fract_y
 _atom_site_fract_z
 _atom_site_occupancy
  Y  Y0  1  0.74406758  0.44440006  0.05485290  1
  Th  Th1  1  0.73871240  0.88272394  0.34093676  1
  Zr  Zr2  1  0.24133688  0.39135416  0.56939233  1
  Fe  Fe3  1  0.24062481  0.09268667  0.82875942  1
  Fe  Fe4  1  0.23674030  0.01035861  0.11289299  1
  Fe  Fe5  1  0.73987800  0.75633829  0.73414572  1
  P  P6  1  0.73644289  0.93204855  0.96926197  1
  P  P7  1  0.24046777  0.88719177  0.60841789  1
  P  P8  1  0.74126383  0.33371561  0.76418204  1
  P  P9  1  0.24241347  0.34055256  0.28440547  1
