# generated using pymatgen
data_YTlIO2
_symmetry_space_group_name_H-M   'P 1'
_cell_length_a   4.10389789
_cell_length_b   4.11666719
_cell_length_c   7.02978759
_cell_angle_alpha   103.21682289
_cell_angle_beta   106.38082270
_cell_angle_gamma   89.98509744
_symmetry_Int_Tables_number   1
_chemical_formula_structural   YTlIO2
_chemical_formula_sum   'Y1 Tl1 I1 O2'
_cell_volume   110.66243238
_cell_formula_units_Z   1
loop_
 _symmetry_equiv_pos_site_id
 _symmetry_equiv_pos_as_xyz
  1  'x, y, z'
loop_
 _atom_site_type_symbol
 _atom_site_label
 _atom_site_symmetry_multiplicity
 _atom_site_fract_x
 _atom_site_fract_y
 _atom_site_fract_z
 _atom_site_occupancy
  Y  Y0  1  0.94526429  0.09488882  0.87526578  1
  Tl  Tl1  1  0.60190059  0.71972066  0.20038236  1
  I  I2  1  0.26623963  0.36577381  0.53746193  1
  O  O3  1  0.50785663  0.13976088  0.00587433  1
  O  O4  1  0.00583779  0.64165731  0.00256400  1
