# generated using pymatgen
data_YTm
_symmetry_space_group_name_H-M   'P 1'
_cell_length_a   3.53595778
_cell_length_b   3.53708420
_cell_length_c   6.08792253
_cell_angle_alpha   73.37603398
_cell_angle_beta   73.37216914
_cell_angle_gamma   60.19352825
_symmetry_Int_Tables_number   1
_chemical_formula_structural   YTm
_chemical_formula_sum   'Y1 Tm1'
_cell_volume   62.35124226
_cell_formula_units_Z   1
loop_
 _symmetry_equiv_pos_site_id
 _symmetry_equiv_pos_as_xyz
  1  'x, y, z'
loop_
 _atom_site_type_symbol
 _atom_site_label
 _atom_site_symmetry_multiplicity
 _atom_site_fract_x
 _atom_site_fract_y
 _atom_site_fract_z
 _atom_site_occupancy
  Y  Y0  1  0.98684133  0.00100399  0.13654838  1
  Tm  Tm1  1  0.48417674  0.50221001  0.63654937  1
