# generated using pymatgen
data_YZnGaOF4
_symmetry_space_group_name_H-M   'P 1'
_cell_length_a   4.28385898
_cell_length_b   5.18289706
_cell_length_c   7.10657216
_cell_angle_alpha   69.96186630
_cell_angle_beta   69.12347449
_cell_angle_gamma   63.51824271
_symmetry_Int_Tables_number   1
_chemical_formula_structural   YZnGaOF4
_chemical_formula_sum   'Y1 Zn1 Ga1 O1 F4'
_cell_volume   128.73443693
_cell_formula_units_Z   1
loop_
 _symmetry_equiv_pos_site_id
 _symmetry_equiv_pos_as_xyz
  1  'x, y, z'
loop_
 _atom_site_type_symbol
 _atom_site_label
 _atom_site_symmetry_multiplicity
 _atom_site_fract_x
 _atom_site_fract_y
 _atom_site_fract_z
 _atom_site_occupancy
  Y  Y0  1  0.52103658  0.10590353  0.15813396  1
  Zn  Zn1  1  0.26163979  0.83006072  0.77170278  1
  Ga  Ga2  1  0.74010090  0.45110467  0.61897237  1
  O  O3  1  0.76764088  0.08810621  0.82443882  1
  F  F4  1  -0.00536297  0.12329106  0.18589704  1
  F  F5  1  0.63153047  0.64642860  0.33868049  1
  F  F6  1  0.23825261  0.25114798  0.48201404  1
  F  F7  1  0.30482629  0.58554179  0.06213709  1
