# generated using pymatgen
data_Zn4AsSe3
_symmetry_space_group_name_H-M   'P 1'
_cell_length_a   3.96506000
_cell_length_b   4.01802101
_cell_length_c   11.79779917
_cell_angle_alpha   90.03015324
_cell_angle_beta   89.96979949
_cell_angle_gamma   90.07195498
_symmetry_Int_Tables_number   1
_chemical_formula_structural   Zn4AsSe3
_chemical_formula_sum   'Zn4 As1 Se3'
_cell_volume   187.95873084
_cell_formula_units_Z   1
loop_
 _symmetry_equiv_pos_site_id
 _symmetry_equiv_pos_as_xyz
  1  'x, y, z'
loop_
 _atom_site_type_symbol
 _atom_site_label
 _atom_site_symmetry_multiplicity
 _atom_site_fract_x
 _atom_site_fract_y
 _atom_site_fract_z
 _atom_site_occupancy
  Zn  Zn0  1  0.92568279  0.89991667  0.93560384  1
  Zn  Zn1  1  0.42216564  0.40117743  0.68639181  1
  Zn  Zn2  1  0.42390175  0.39982730  0.18248396  1
  Zn  Zn3  1  0.92303470  0.90042903  0.43256032  1
  As  As4  1  0.92304534  0.40032707  0.55570636  1
  Se  Se5  1  0.42562454  0.90072633  0.81083708  1
  Se  Se6  1  0.42363937  0.89987909  0.30506953  1
  Se  Se7  1  0.92426529  0.40001623  0.05777268  1
