# generated using pymatgen
data_Zn5Se6N
_symmetry_space_group_name_H-M   'P 1'
_cell_length_a   5.94992220
_cell_length_b   6.18528941
_cell_length_c   7.99875182
_cell_angle_alpha   91.94734912
_cell_angle_beta   84.97992665
_cell_angle_gamma   67.19557751
_symmetry_Int_Tables_number   1
_chemical_formula_structural   Zn5Se6N
_chemical_formula_sum   'Zn5 Se6 N1'
_cell_volume   269.57923117
_cell_formula_units_Z   1
loop_
 _symmetry_equiv_pos_site_id
 _symmetry_equiv_pos_as_xyz
  1  'x, y, z'
loop_
 _atom_site_type_symbol
 _atom_site_label
 _atom_site_symmetry_multiplicity
 _atom_site_fract_x
 _atom_site_fract_y
 _atom_site_fract_z
 _atom_site_occupancy
  Zn  Zn0  1  0.68129985  0.43137265  0.24662652  1
  Zn  Zn1  1  0.39900893  0.56573547  0.59808407  1
  Zn  Zn2  1  -0.00788066  0.81785299  0.99977037  1
  Zn  Zn3  1  0.30615738  0.98725391  0.36698160  1
  Zn  Zn4  1  0.82459757  0.72165517  0.50811009  1
  Se  Se5  1  0.66414493  -0.04957097  0.80131697  1
  Se  Se6  1  0.90760987  0.99287921  0.29493018  1
  Se  Se7  1  0.45948167  0.68920351  0.88183781  1
  Se  Se8  1  0.01896533  0.40285697  0.01412660  1
  Se  Se9  1  0.37746691  0.24966110  0.15656209  1
  Se  Se10  1  0.14681707  0.34969252  0.58601604  1
  N  N11  1  0.54366532  0.68544372  0.41941846  1
