# generated using pymatgen
data_ZnCuNi
_symmetry_space_group_name_H-M   'P 1'
_cell_length_a   4.42637964
_cell_length_b   3.52488426
_cell_length_c   2.65028216
_cell_angle_alpha   90.09341822
_cell_angle_beta   73.13726787
_cell_angle_gamma   67.17440865
_symmetry_Int_Tables_number   1
_chemical_formula_structural   ZnCuNi
_chemical_formula_sum   'Zn1 Cu1 Ni1'
_cell_volume   36.16723980
_cell_formula_units_Z   1
loop_
 _symmetry_equiv_pos_site_id
 _symmetry_equiv_pos_as_xyz
  1  'x, y, z'
loop_
 _atom_site_type_symbol
 _atom_site_label
 _atom_site_symmetry_multiplicity
 _atom_site_fract_x
 _atom_site_fract_y
 _atom_site_fract_z
 _atom_site_occupancy
  Zn  Zn0  1  0.76681435  0.75316940  0.49239100  1
  Cu  Cu1  1  0.10919411  0.08234560  0.81939235  1
  Ni  Ni2  1  0.43836680  0.41818186  0.15544932  1
