# generated using pymatgen
data_ZnGaO2F3
_symmetry_space_group_name_H-M   'P 1'
_cell_length_a   3.44515797
_cell_length_b   3.78213790
_cell_length_c   7.35485563
_cell_angle_alpha   97.20451932
_cell_angle_beta   104.00669011
_cell_angle_gamma   90.12735300
_symmetry_Int_Tables_number   1
_chemical_formula_structural   ZnGaO2F3
_chemical_formula_sum   'Zn1 Ga1 O2 F3'
_cell_volume   92.19785989
_cell_formula_units_Z   1
loop_
 _symmetry_equiv_pos_site_id
 _symmetry_equiv_pos_as_xyz
  1  'x, y, z'
loop_
 _atom_site_type_symbol
 _atom_site_label
 _atom_site_symmetry_multiplicity
 _atom_site_fract_x
 _atom_site_fract_y
 _atom_site_fract_z
 _atom_site_occupancy
  Zn  Zn0  1  0.12004514  0.63175557  0.68150176  1
  Ga  Ga1  1  0.42214825  0.56033749  0.29057977  1
  O  O2  1  0.84826825  0.49612453  0.14718292  1
  O  O3  1  0.54835019  0.60752583  0.54332413  1
  F  F4  1  0.77395856  0.73181937  0.00044040  1
  F  F5  1  0.16852270  0.15775536  0.78235213  1
  F  F6  1  0.40148968  0.04518980  0.24537804  1
