# generated using pymatgen
data_ZnS3
_symmetry_space_group_name_H-M   'P 1'
_cell_length_a   3.98443912
_cell_length_b   4.47185096
_cell_length_c   6.53172596
_cell_angle_alpha   89.73723536
_cell_angle_beta   67.39891563
_cell_angle_gamma   55.61632764
_symmetry_Int_Tables_number   1
_chemical_formula_structural   ZnS3
_chemical_formula_sum   'Zn1 S3'
_cell_volume   85.15337890
_cell_formula_units_Z   1
loop_
 _symmetry_equiv_pos_site_id
 _symmetry_equiv_pos_as_xyz
  1  'x, y, z'
loop_
 _atom_site_type_symbol
 _atom_site_label
 _atom_site_symmetry_multiplicity
 _atom_site_fract_x
 _atom_site_fract_y
 _atom_site_fract_z
 _atom_site_occupancy
  Zn  Zn0  1  0.59334730  0.69846262  0.80427928  1
  S  S1  1  0.95370670  0.35685124  0.02458047  1
  S  S2  1  0.23500759  0.71380942  0.58390934  1
  S  S3  1  0.59648065  0.25289365  0.30443598  1
