# generated using pymatgen
data_AgAuCl2
_symmetry_space_group_name_H-M   'P 1'
_cell_length_a   4.48233186
_cell_length_b   3.77042713
_cell_length_c   7.62032885
_cell_angle_alpha   89.99205753
_cell_angle_beta   113.90192326
_cell_angle_gamma   89.99659493
_symmetry_Int_Tables_number   1
_chemical_formula_structural   AgAuCl2
_chemical_formula_sum   'Ag1 Au1 Cl2'
_cell_volume   117.74125252
_cell_formula_units_Z   1
loop_
 _symmetry_equiv_pos_site_id
 _symmetry_equiv_pos_as_xyz
  1  'x, y, z'
loop_
 _atom_site_type_symbol
 _atom_site_label
 _atom_site_symmetry_multiplicity
 _atom_site_fract_x
 _atom_site_fract_y
 _atom_site_fract_z
 _atom_site_occupancy
  Ag  Ag0  1  -0.07828532  0.00005982  0.07379454  1
  Au  Au1  1  0.36653913  0.50024273  -0.00669975  1
  Cl  Cl2  1  0.31704040  0.49985781  0.29302911  1
  Cl  Cl3  1  0.41040579  -0.00016036  0.76557610  1
