# generated using pymatgen
data_As2PdRh
_symmetry_space_group_name_H-M   'P 1'
_cell_length_a   3.47713970
_cell_length_b   3.54585471
_cell_length_c   5.31734495
_cell_angle_alpha   90.00000006
_cell_angle_beta   90.25366961
_cell_angle_gamma   89.99999985
_symmetry_Int_Tables_number   1
_chemical_formula_structural   As2PdRh
_chemical_formula_sum   'As2 Pd1 Rh1'
_cell_volume   65.55920148
_cell_formula_units_Z   1
loop_
 _symmetry_equiv_pos_site_id
 _symmetry_equiv_pos_as_xyz
  1  'x, y, z'
loop_
 _atom_site_type_symbol
 _atom_site_label
 _atom_site_symmetry_multiplicity
 _atom_site_fract_x
 _atom_site_fract_y
 _atom_site_fract_z
 _atom_site_occupancy
  As  As0  1  0.37672964  0.50000000  0.68300398  1
  As  As1  1  0.87257696  0.00000000  0.06488156  1
  Pd  Pd2  1  0.87727893  -0.00000000  0.53795594  1
  Rh  Rh3  1  0.37341446  0.50000000  0.21415852  1
