# generated using pymatgen
data_BaCeAs
_symmetry_space_group_name_H-M   'P 1'
_cell_length_a   4.37328375
_cell_length_b   4.37327605
_cell_length_c   7.43558818
_cell_angle_alpha   90.00019350
_cell_angle_beta   90.00012731
_cell_angle_gamma   119.99997445
_symmetry_Int_Tables_number   1
_chemical_formula_structural   BaCeAs
_chemical_formula_sum   'Ba1 Ce1 As1'
_cell_volume   123.15743077
_cell_formula_units_Z   1
loop_
 _symmetry_equiv_pos_site_id
 _symmetry_equiv_pos_as_xyz
  1  'x, y, z'
loop_
 _atom_site_type_symbol
 _atom_site_label
 _atom_site_symmetry_multiplicity
 _atom_site_fract_x
 _atom_site_fract_y
 _atom_site_fract_z
 _atom_site_occupancy
  Ba  Ba0  1  -0.00000375  -0.00000205  -0.00072481  1
  Ce  Ce1  1  0.66667023  0.33333520  0.48617106  1
  As  As2  1  0.33333353  0.66666685  0.28845375  1
