# generated using pymatgen
data_BaCuBr2
_symmetry_space_group_name_H-M   'P 1'
_cell_length_a   4.50766158
_cell_length_b   5.01352877
_cell_length_c   5.15591404
_cell_angle_alpha   90.00203629
_cell_angle_beta   89.21313616
_cell_angle_gamma   89.99913181
_symmetry_Int_Tables_number   1
_chemical_formula_structural   BaCuBr2
_chemical_formula_sum   'Ba1 Cu1 Br2'
_cell_volume   116.50901390
_cell_formula_units_Z   1
loop_
 _symmetry_equiv_pos_site_id
 _symmetry_equiv_pos_as_xyz
  1  'x, y, z'
loop_
 _atom_site_type_symbol
 _atom_site_label
 _atom_site_symmetry_multiplicity
 _atom_site_fract_x
 _atom_site_fract_y
 _atom_site_fract_z
 _atom_site_occupancy
  Ba  Ba0  1  -0.18336345  0.49999882  0.42925309  1
  Cu  Cu1  1  0.07909424  0.00000623  -0.08646559  1
  Br  Br2  1  0.31635722  0.49999684  0.93273958  1
  Br  Br3  1  0.31591199  -0.00000190  0.43217293  1
