# generated using pymatgen
data_BaMgI2
_symmetry_space_group_name_H-M   'P 1'
_cell_length_a   5.03853085
_cell_length_b   4.92830393
_cell_length_c   6.94876926
_cell_angle_alpha   89.99761288
_cell_angle_beta   111.28436803
_cell_angle_gamma   90.00205117
_symmetry_Int_Tables_number   1
_chemical_formula_structural   BaMgI2
_chemical_formula_sum   'Ba1 Mg1 I2'
_cell_volume   160.77831771
_cell_formula_units_Z   1
loop_
 _symmetry_equiv_pos_site_id
 _symmetry_equiv_pos_as_xyz
  1  'x, y, z'
loop_
 _atom_site_type_symbol
 _atom_site_label
 _atom_site_symmetry_multiplicity
 _atom_site_fract_x
 _atom_site_fract_y
 _atom_site_fract_z
 _atom_site_occupancy
  Ba  Ba0  1  -0.21921957  0.49999821  -0.00518627  1
  Mg  Mg1  1  -0.01856038  0.00000178  0.38950894  1
  I  I2  1  0.49594204  0.49999737  0.41955230  1
  I  I3  1  0.20983791  0.00000264  0.85342503  1
