# generated using pymatgen
data_BaPdCl2
_symmetry_space_group_name_H-M   'P 1'
_cell_length_a   4.43483064
_cell_length_b   4.63443704
_cell_length_c   6.51074020
_cell_angle_alpha   89.99446845
_cell_angle_beta   75.71883074
_cell_angle_gamma   89.99668668
_symmetry_Int_Tables_number   1
_chemical_formula_structural   BaPdCl2
_chemical_formula_sum   'Ba1 Pd1 Cl2'
_cell_volume   129.67957378
_cell_formula_units_Z   1
loop_
 _symmetry_equiv_pos_site_id
 _symmetry_equiv_pos_as_xyz
  1  'x, y, z'
loop_
 _atom_site_type_symbol
 _atom_site_label
 _atom_site_symmetry_multiplicity
 _atom_site_fract_x
 _atom_site_fract_y
 _atom_site_fract_z
 _atom_site_occupancy
  Ba  Ba0  1  -0.11072444  0.49994072  0.42016984  1
  Pd  Pd1  1  0.48564461  0.50004523  0.08809196  1
  Cl  Cl2  1  0.49415694  0.00000346  0.23734469  1
  Cl  Cl3  1  0.26662289  0.50001059  0.75549351  1
