# generated using pymatgen
data_BaSrBr
_symmetry_space_group_name_H-M   'P 1'
_cell_length_a   4.28580914
_cell_length_b   4.38038151
_cell_length_c   8.24339623
_cell_angle_alpha   90.00162069
_cell_angle_beta   89.99987206
_cell_angle_gamma   89.99334375
_symmetry_Int_Tables_number   1
_chemical_formula_structural   BaSrBr
_chemical_formula_sum   'Ba1 Sr1 Br1'
_cell_volume   154.75722567
_cell_formula_units_Z   1
loop_
 _symmetry_equiv_pos_site_id
 _symmetry_equiv_pos_as_xyz
  1  'x, y, z'
loop_
 _atom_site_type_symbol
 _atom_site_label
 _atom_site_symmetry_multiplicity
 _atom_site_fract_x
 _atom_site_fract_y
 _atom_site_fract_z
 _atom_site_occupancy
  Ba  Ba0  1  0.00000019  -0.00000105  0.55226882  1
  Sr  Sr1  1  0.49999926  0.50000041  -0.05031911  1
  Br  Br2  1  0.00000055  0.50000064  0.23935029  1
