# generated using pymatgen
data_BaTeSe4
_symmetry_space_group_name_H-M   'P 1'
_cell_length_a   5.72219431
_cell_length_b   5.83915719
_cell_length_c   6.51118144
_cell_angle_alpha   84.56773008
_cell_angle_beta   92.95199795
_cell_angle_gamma   87.36206344
_symmetry_Int_Tables_number   1
_chemical_formula_structural   BaTeSe4
_chemical_formula_sum   'Ba1 Te1 Se4'
_cell_volume   216.00861143
_cell_formula_units_Z   1
loop_
 _symmetry_equiv_pos_site_id
 _symmetry_equiv_pos_as_xyz
  1  'x, y, z'
loop_
 _atom_site_type_symbol
 _atom_site_label
 _atom_site_symmetry_multiplicity
 _atom_site_fract_x
 _atom_site_fract_y
 _atom_site_fract_z
 _atom_site_occupancy
  Ba  Ba0  1  0.24760267  0.82794555  0.16640015  1
  Te  Te1  1  -0.18875126  -0.61922601  0.35692649  1
  Se  Se2  1  0.25628199  -0.70002419  -0.57983444  1
  Se  Se3  1  -0.24491028  0.77697810  0.49856173  1
  Se  Se4  1  0.72399580  0.04778352  -0.01122483  1
  Se  Se5  1  0.75958108  0.66414303  0.89027091  1
