# generated using pymatgen
data_BaZnO
_symmetry_space_group_name_H-M   'P 1'
_cell_length_a   5.86079283
_cell_length_b   5.74486720
_cell_length_c   3.69223338
_cell_angle_alpha   90.00000072
_cell_angle_beta   90.00000071
_cell_angle_gamma   141.53469658
_symmetry_Int_Tables_number   1
_chemical_formula_structural   BaZnO
_chemical_formula_sum   'Ba1 Zn1 O1'
_cell_volume   77.32932852
_cell_formula_units_Z   1
loop_
 _symmetry_equiv_pos_site_id
 _symmetry_equiv_pos_as_xyz
  1  'x, y, z'
loop_
 _atom_site_type_symbol
 _atom_site_label
 _atom_site_symmetry_multiplicity
 _atom_site_fract_x
 _atom_site_fract_y
 _atom_site_fract_z
 _atom_site_occupancy
  Ba  Ba0  1  0.03324960  0.00731675  0.00000003  1
  Zn  Zn1  1  -0.68654509  0.75264488  0.50000001  1
  O  O2  1  0.48662883  0.57337170  0.49999996  1
