# generated using pymatgen
data_BeBrCl
_symmetry_space_group_name_H-M   'P 1'
_cell_length_a   3.39547202
_cell_length_b   3.39546797
_cell_length_c   6.70057170
_cell_angle_alpha   89.98985486
_cell_angle_beta   90.01008237
_cell_angle_gamma   120.00995619
_symmetry_Int_Tables_number   1
_chemical_formula_structural   BeBrCl
_chemical_formula_sum   'Be1 Br1 Cl1'
_cell_volume   66.89577594
_cell_formula_units_Z   1
loop_
 _symmetry_equiv_pos_site_id
 _symmetry_equiv_pos_as_xyz
  1  'x, y, z'
loop_
 _atom_site_type_symbol
 _atom_site_label
 _atom_site_symmetry_multiplicity
 _atom_site_fract_x
 _atom_site_fract_y
 _atom_site_fract_z
 _atom_site_occupancy
  Be  Be0  1  -0.00002065  0.00002660  0.99263749  1
  Br  Br1  1  0.66665509  0.33334243  0.19938353  1
  Cl  Cl2  1  0.33336556  0.66663097  0.80797898  1
