# generated using pymatgen
data_BeCuCl2
_symmetry_space_group_name_H-M   'P 1'
_cell_length_a   4.86919845
_cell_length_b   3.07948165
_cell_length_c   6.57933440
_cell_angle_alpha   90.00002203
_cell_angle_beta   117.22041895
_cell_angle_gamma   89.99993065
_symmetry_Int_Tables_number   1
_chemical_formula_structural   BeCuCl2
_chemical_formula_sum   'Be1 Cu1 Cl2'
_cell_volume   87.72888279
_cell_formula_units_Z   1
loop_
 _symmetry_equiv_pos_site_id
 _symmetry_equiv_pos_as_xyz
  1  'x, y, z'
loop_
 _atom_site_type_symbol
 _atom_site_label
 _atom_site_symmetry_multiplicity
 _atom_site_fract_x
 _atom_site_fract_y
 _atom_site_fract_z
 _atom_site_occupancy
  Be  Be0  1  0.47908882  0.49999993  0.61836439  1
  Cu  Cu1  1  -0.07127983  0.00000032  -0.24052925  1
  Cl  Cl2  1  0.26570062  0.00000003  0.39408587  1
  Cl  Cl3  1  0.35449039  0.49999972  0.87577899  1
