# generated using pymatgen
data_BeSiPd
_symmetry_space_group_name_H-M   'P 1'
_cell_length_a   4.09332170
_cell_length_b   4.09332199
_cell_length_c   2.72416607
_cell_angle_alpha   89.99999923
_cell_angle_beta   90.00000883
_cell_angle_gamma   120.00109781
_symmetry_Int_Tables_number   1
_chemical_formula_structural   BeSiPd
_chemical_formula_sum   'Be1 Si1 Pd1'
_cell_volume   39.52857812
_cell_formula_units_Z   1
loop_
 _symmetry_equiv_pos_site_id
 _symmetry_equiv_pos_as_xyz
  1  'x, y, z'
loop_
 _atom_site_type_symbol
 _atom_site_label
 _atom_site_symmetry_multiplicity
 _atom_site_fract_x
 _atom_site_fract_y
 _atom_site_fract_z
 _atom_site_occupancy
  Be  Be0  1  0.00000005  -0.00000009  -0.00000002  1
  Si  Si1  1  0.33333399  0.66666599  0.50000002  1
  Pd  Pd2  1  0.66666596  0.33333410  0.50000000  1
