# generated using pymatgen
data_BiH2F
_symmetry_space_group_name_H-M   'P 1'
_cell_length_a   3.78158229
_cell_length_b   3.78158240
_cell_length_c   4.18799822
_cell_angle_alpha   90.00000360
_cell_angle_beta   90.00000000
_cell_angle_gamma   120.00010420
_symmetry_Int_Tables_number   1
_chemical_formula_structural   BiH2F
_chemical_formula_sum   'Bi1 H2 F1'
_cell_volume   51.86612321
_cell_formula_units_Z   1
loop_
 _symmetry_equiv_pos_site_id
 _symmetry_equiv_pos_as_xyz
  1  'x, y, z'
loop_
 _atom_site_type_symbol
 _atom_site_label
 _atom_site_symmetry_multiplicity
 _atom_site_fract_x
 _atom_site_fract_y
 _atom_site_fract_z
 _atom_site_occupancy
  Bi  Bi0  1  -0.00000014  0.00000012  -0.00000002  1
  H  H1  1  0.33333327  0.66666672  0.00000001  1
  H  H2  1  0.66666665  0.33333335  -0.00000002  1
  F  F3  1  0.33333355  0.66666647  0.50000002  1
