# generated using pymatgen
data_Ca2SeO
_symmetry_space_group_name_H-M   'P 1'
_cell_length_a   3.90777078
_cell_length_b   3.90777097
_cell_length_c   5.54104171
_cell_angle_alpha   89.99998472
_cell_angle_beta   89.99999673
_cell_angle_gamma   89.99998798
_symmetry_Int_Tables_number   1
_chemical_formula_structural   Ca2SeO
_chemical_formula_sum   'Ca2 Se1 O1'
_cell_volume   84.61543720
_cell_formula_units_Z   1
loop_
 _symmetry_equiv_pos_site_id
 _symmetry_equiv_pos_as_xyz
  1  'x, y, z'
loop_
 _atom_site_type_symbol
 _atom_site_label
 _atom_site_symmetry_multiplicity
 _atom_site_fract_x
 _atom_site_fract_y
 _atom_site_fract_z
 _atom_site_occupancy
  Ca  Ca0  1  0.00000008  0.00000001  0.49999997  1
  Ca  Ca1  1  0.50000007  0.50000000  -0.00000010  1
  Se  Se2  1  0.49999999  0.50000004  0.50000003  1
  O  O3  1  -0.00000014  -0.00000005  0.00000010  1
