# generated using pymatgen
data_CaAs2Pt
_symmetry_space_group_name_H-M   'P 1'
_cell_length_a   4.49073185
_cell_length_b   4.51073866
_cell_length_c   4.59177446
_cell_angle_alpha   89.99999874
_cell_angle_beta   93.09394751
_cell_angle_gamma   90.00000030
_symmetry_Int_Tables_number   1
_chemical_formula_structural   CaAs2Pt
_chemical_formula_sum   'Ca1 As2 Pt1'
_cell_volume   92.87778245
_cell_formula_units_Z   1
loop_
 _symmetry_equiv_pos_site_id
 _symmetry_equiv_pos_as_xyz
  1  'x, y, z'
loop_
 _atom_site_type_symbol
 _atom_site_label
 _atom_site_symmetry_multiplicity
 _atom_site_fract_x
 _atom_site_fract_y
 _atom_site_fract_z
 _atom_site_occupancy
  Ca  Ca0  1  0.46099580  0.00000000  0.43282900  1
  As  As1  1  -0.05893363  0.00000000  0.94522968  1
  As  As2  1  0.95081773  0.50000000  0.31151642  1
  Pt  Pt3  1  0.14712010  0.50000000  0.81032489  1
