# generated using pymatgen
data_CaCdSe2
_symmetry_space_group_name_H-M   'P 1'
_cell_length_a   4.15394961
_cell_length_b   5.88465709
_cell_length_c   4.14428119
_cell_angle_alpha   90.00000412
_cell_angle_beta   90.07051091
_cell_angle_gamma   90.00000666
_symmetry_Int_Tables_number   1
_chemical_formula_structural   CaCdSe2
_chemical_formula_sum   'Ca1 Cd1 Se2'
_cell_volume   101.30509073
_cell_formula_units_Z   1
loop_
 _symmetry_equiv_pos_site_id
 _symmetry_equiv_pos_as_xyz
  1  'x, y, z'
loop_
 _atom_site_type_symbol
 _atom_site_label
 _atom_site_symmetry_multiplicity
 _atom_site_fract_x
 _atom_site_fract_y
 _atom_site_fract_z
 _atom_site_occupancy
  Ca  Ca0  1  0.38528181  -0.00000000  0.61481367  1
  Cd  Cd1  1  0.85949721  0.49999999  0.13955505  1
  Se  Se2  1  0.37061690  0.50000002  0.62989576  1
  Se  Se3  1  0.88460407  -0.00000001  0.11573553  1
