# generated using pymatgen
data_CaHgCl
_symmetry_space_group_name_H-M   'P 1'
_cell_length_a   3.97549144
_cell_length_b   4.10555858
_cell_length_c   6.34334082
_cell_angle_alpha   89.94089482
_cell_angle_beta   90.00009167
_cell_angle_gamma   89.99993309
_symmetry_Int_Tables_number   1
_chemical_formula_structural   CaHgCl
_chemical_formula_sum   'Ca1 Hg1 Cl1'
_cell_volume   103.53349900
_cell_formula_units_Z   1
loop_
 _symmetry_equiv_pos_site_id
 _symmetry_equiv_pos_as_xyz
  1  'x, y, z'
loop_
 _atom_site_type_symbol
 _atom_site_label
 _atom_site_symmetry_multiplicity
 _atom_site_fract_x
 _atom_site_fract_y
 _atom_site_fract_z
 _atom_site_occupancy
  Ca  Ca0  1  -0.00000144  -0.00016874  -0.09935508  1
  Hg  Hg1  1  0.49999395  0.50004611  0.65397247  1
  Cl  Cl2  1  0.00000749  0.50012263  0.16868261  1
