# generated using pymatgen
data_CaHW
_symmetry_space_group_name_H-M   'P 1'
_cell_length_a   2.80930711
_cell_length_b   2.80930517
_cell_length_c   5.94781115
_cell_angle_alpha   90.00002675
_cell_angle_beta   89.99996552
_cell_angle_gamma   90.00000775
_symmetry_Int_Tables_number   1
_chemical_formula_structural   CaHW
_chemical_formula_sum   'Ca1 H1 W1'
_cell_volume   46.94132104
_cell_formula_units_Z   1
loop_
 _symmetry_equiv_pos_site_id
 _symmetry_equiv_pos_as_xyz
  1  'x, y, z'
loop_
 _atom_site_type_symbol
 _atom_site_label
 _atom_site_symmetry_multiplicity
 _atom_site_fract_x
 _atom_site_fract_y
 _atom_site_fract_z
 _atom_site_occupancy
  Ca  Ca0  1  0.50000000  0.49999999  0.53715525  1
  H  H1  1  -0.00000003  0.00000002  0.13181095  1
  W  W2  1  0.50000003  0.49999998  0.03123379  1
