# generated using pymatgen
data_CaNCl
_symmetry_space_group_name_H-M   'P 1'
_cell_length_a   4.00743288
_cell_length_b   4.00746789
_cell_length_c   4.24050826
_cell_angle_alpha   90.00692948
_cell_angle_beta   89.99433678
_cell_angle_gamma   119.99955639
_symmetry_Int_Tables_number   1
_chemical_formula_structural   CaNCl
_chemical_formula_sum   'Ca1 N1 Cl1'
_cell_volume   58.97755875
_cell_formula_units_Z   1
loop_
 _symmetry_equiv_pos_site_id
 _symmetry_equiv_pos_as_xyz
  1  'x, y, z'
loop_
 _atom_site_type_symbol
 _atom_site_label
 _atom_site_symmetry_multiplicity
 _atom_site_fract_x
 _atom_site_fract_y
 _atom_site_fract_z
 _atom_site_occupancy
  Ca  Ca0  1  0.66666550  0.33333943  0.42469571  1
  N  N1  1  0.33332900  0.66667474  0.42632622  1
  Cl  Cl2  1  0.00000549  -0.00001417  -0.07202193  1
