# generated using pymatgen
data_CaReCl
_symmetry_space_group_name_H-M   'P 1'
_cell_length_a   3.96057921
_cell_length_b   2.98988814
_cell_length_c   5.61169135
_cell_angle_alpha   90.00035577
_cell_angle_beta   90.00716285
_cell_angle_gamma   89.99954608
_symmetry_Int_Tables_number   1
_chemical_formula_structural   CaReCl
_chemical_formula_sum   'Ca1 Re1 Cl1'
_cell_volume   66.45190211
_cell_formula_units_Z   1
loop_
 _symmetry_equiv_pos_site_id
 _symmetry_equiv_pos_as_xyz
  1  'x, y, z'
loop_
 _atom_site_type_symbol
 _atom_site_label
 _atom_site_symmetry_multiplicity
 _atom_site_fract_x
 _atom_site_fract_y
 _atom_site_fract_z
 _atom_site_occupancy
  Ca  Ca0  1  -0.00000883  -0.00000606  0.59395394  1
  Re  Re1  1  0.49999588  0.49999370  -0.03502979  1
  Cl  Cl2  1  0.00001295  0.50001237  0.17437586  1
