# generated using pymatgen
data_CaSb2Os
_symmetry_space_group_name_H-M   'P 1'
_cell_length_a   4.42092819
_cell_length_b   4.62522138
_cell_length_c   6.17402813
_cell_angle_alpha   90.00002607
_cell_angle_beta   111.05579466
_cell_angle_gamma   89.99999958
_symmetry_Int_Tables_number   1
_chemical_formula_structural   CaSb2Os
_chemical_formula_sum   'Ca1 Sb2 Os1'
_cell_volume   117.81585733
_cell_formula_units_Z   1
loop_
 _symmetry_equiv_pos_site_id
 _symmetry_equiv_pos_as_xyz
  1  'x, y, z'
loop_
 _atom_site_type_symbol
 _atom_site_label
 _atom_site_symmetry_multiplicity
 _atom_site_fract_x
 _atom_site_fract_y
 _atom_site_fract_z
 _atom_site_occupancy
  Ca  Ca0  1  0.39157112  0.00000015  0.41105127  1
  Sb  Sb1  1  0.09874463  -0.00000015  0.82184283  1
  Sb  Sb2  1  0.81269801  0.50000002  0.24893116  1
  Os  Os3  1  0.19698624  0.49999997  0.01817473  1
