# generated using pymatgen
data_CaSiAg2
_symmetry_space_group_name_H-M   'P 1'
_cell_length_a   3.37657768
_cell_length_b   4.41560337
_cell_length_c   5.78931993
_cell_angle_alpha   90.00000246
_cell_angle_beta   106.81147983
_cell_angle_gamma   90.00000433
_symmetry_Int_Tables_number   1
_chemical_formula_structural   CaSiAg2
_chemical_formula_sum   'Ca1 Si1 Ag2'
_cell_volume   82.62756882
_cell_formula_units_Z   1
loop_
 _symmetry_equiv_pos_site_id
 _symmetry_equiv_pos_as_xyz
  1  'x, y, z'
loop_
 _atom_site_type_symbol
 _atom_site_label
 _atom_site_symmetry_multiplicity
 _atom_site_fract_x
 _atom_site_fract_y
 _atom_site_fract_z
 _atom_site_occupancy
  Ca  Ca0  1  0.45739497  0.00000001  0.53459771  1
  Si  Si1  1  0.07832553  0.49999999  0.77423324  1
  Ag  Ag2  1  0.18543620  0.00000000  0.00217419  1
  Ag  Ag3  1  0.77874330  0.50000000  0.18899486  1
