# generated using pymatgen
data_CaSmS2
_symmetry_space_group_name_H-M   'P 1'
_cell_length_a   4.01551973
_cell_length_b   4.01552072
_cell_length_c   5.67307741
_cell_angle_alpha   89.99999775
_cell_angle_beta   89.99999539
_cell_angle_gamma   90.00001427
_symmetry_Int_Tables_number   1
_chemical_formula_structural   CaSmS2
_chemical_formula_sum   'Ca1 Sm1 S2'
_cell_volume   91.47498458
_cell_formula_units_Z   1
loop_
 _symmetry_equiv_pos_site_id
 _symmetry_equiv_pos_as_xyz
  1  'x, y, z'
loop_
 _atom_site_type_symbol
 _atom_site_label
 _atom_site_symmetry_multiplicity
 _atom_site_fract_x
 _atom_site_fract_y
 _atom_site_fract_z
 _atom_site_occupancy
  Ca  Ca0  1  -0.00000002  0.00000001  0.49999999  1
  Sm  Sm1  1  0.49999999  0.49999994  -0.00000000  1
  S  S2  1  0.00000006  0.00000007  0.00000000  1
  S  S3  1  0.49999997  0.49999998  0.50000001  1
