# generated using pymatgen
data_CaSmI2
_symmetry_space_group_name_H-M   'P 1'
_cell_length_a   8.71783134
_cell_length_b   3.96669181
_cell_length_c   7.04532268
_cell_angle_alpha   90.00185052
_cell_angle_beta   101.96281439
_cell_angle_gamma   90.29368401
_symmetry_Int_Tables_number   1
_chemical_formula_structural   CaSmI2
_chemical_formula_sum   'Ca1 Sm1 I2'
_cell_volume   238.33951068
_cell_formula_units_Z   1
loop_
 _symmetry_equiv_pos_site_id
 _symmetry_equiv_pos_as_xyz
  1  'x, y, z'
loop_
 _atom_site_type_symbol
 _atom_site_label
 _atom_site_symmetry_multiplicity
 _atom_site_fract_x
 _atom_site_fract_y
 _atom_site_fract_z
 _atom_site_occupancy
  Ca  Ca0  1  0.00355825  0.49854262  0.50801650  1
  Sm  Sm1  1  0.00266690  -0.00140292  0.00001758  1
  I  I2  1  0.25397270  0.50142170  0.23917061  1
  I  I3  1  0.25380215  0.00143860  0.74449530  1
