# generated using pymatgen
data_CaSnAs2
_symmetry_space_group_name_H-M   'P 1'
_cell_length_a   4.20776983
_cell_length_b   4.07414889
_cell_length_c   6.78770971
_cell_angle_alpha   90.00012722
_cell_angle_beta   118.78898968
_cell_angle_gamma   89.99992384
_symmetry_Int_Tables_number   1
_chemical_formula_structural   CaSnAs2
_chemical_formula_sum   'Ca1 Sn1 As2'
_cell_volume   101.97979271
_cell_formula_units_Z   1
loop_
 _symmetry_equiv_pos_site_id
 _symmetry_equiv_pos_as_xyz
  1  'x, y, z'
loop_
 _atom_site_type_symbol
 _atom_site_label
 _atom_site_symmetry_multiplicity
 _atom_site_fract_x
 _atom_site_fract_y
 _atom_site_fract_z
 _atom_site_occupancy
  Ca  Ca0  1  0.46201032  -0.00000044  0.39961583  1
  Sn  Sn1  1  0.23419744  0.49999964  0.81808862  1
  As  As2  1  0.86867322  0.00000138  0.92007804  1
  As  As3  1  0.93511903  0.49999941  0.36221752  1
