# generated using pymatgen
data_CdAgSb
_symmetry_space_group_name_H-M   'P 1'
_cell_length_a   4.64720109
_cell_length_b   4.64720052
_cell_length_c   3.91294369
_cell_angle_alpha   89.99978680
_cell_angle_beta   90.00020502
_cell_angle_gamma   120.00057526
_symmetry_Int_Tables_number   1
_chemical_formula_structural   CdAgSb
_chemical_formula_sum   'Cd1 Ag1 Sb1'
_cell_volume   73.18373823
_cell_formula_units_Z   1
loop_
 _symmetry_equiv_pos_site_id
 _symmetry_equiv_pos_as_xyz
  1  'x, y, z'
loop_
 _atom_site_type_symbol
 _atom_site_label
 _atom_site_symmetry_multiplicity
 _atom_site_fract_x
 _atom_site_fract_y
 _atom_site_fract_z
 _atom_site_occupancy
  Cd  Cd0  1  0.66666674  0.33333331  0.27480143  1
  Ag  Ag1  1  -0.00000101  0.00000099  0.98791441  1
  Sb  Sb2  1  0.33333427  0.66666570  0.73728417  1
