# generated using pymatgen
data_CdFeCl2
_symmetry_space_group_name_H-M   'P 1'
_cell_length_a   5.73700566
_cell_length_b   3.30642138
_cell_length_c   6.05460531
_cell_angle_alpha   89.99992531
_cell_angle_beta   111.20967692
_cell_angle_gamma   89.99993764
_symmetry_Int_Tables_number   1
_chemical_formula_structural   CdFeCl2
_chemical_formula_sum   'Cd1 Fe1 Cl2'
_cell_volume   107.06995749
_cell_formula_units_Z   1
loop_
 _symmetry_equiv_pos_site_id
 _symmetry_equiv_pos_as_xyz
  1  'x, y, z'
loop_
 _atom_site_type_symbol
 _atom_site_label
 _atom_site_symmetry_multiplicity
 _atom_site_fract_x
 _atom_site_fract_y
 _atom_site_fract_z
 _atom_site_occupancy
  Cd  Cd0  1  -0.17282990  0.50000213  -0.12808977  1
  Fe  Fe1  1  0.55609380  -0.00000255  0.06475571  1
  Cl  Cl2  1  0.18336854  0.00000296  0.75852869  1
  Cl  Cl3  1  0.56136756  0.49999746  0.34250536  1
