# generated using pymatgen
data_CdGeCl
_symmetry_space_group_name_H-M   'P 1'
_cell_length_a   3.54811730
_cell_length_b   3.50396631
_cell_length_c   6.01076257
_cell_angle_alpha   90.00002226
_cell_angle_beta   89.99922352
_cell_angle_gamma   90.00000049
_symmetry_Int_Tables_number   1
_chemical_formula_structural   CdGeCl
_chemical_formula_sum   'Cd1 Ge1 Cl1'
_cell_volume   74.72870637
_cell_formula_units_Z   1
loop_
 _symmetry_equiv_pos_site_id
 _symmetry_equiv_pos_as_xyz
  1  'x, y, z'
loop_
 _atom_site_type_symbol
 _atom_site_label
 _atom_site_symmetry_multiplicity
 _atom_site_fract_x
 _atom_site_fract_y
 _atom_site_fract_z
 _atom_site_occupancy
  Cd  Cd0  1  -0.00000357  0.00000006  -0.11002176  1
  Ge  Ge1  1  0.50000303  0.50000003  0.62322677  1
  Cl  Cl2  1  0.00000054  0.49999992  0.25009499  1
