# generated using pymatgen
data_CdHgBr2
_symmetry_space_group_name_H-M   'P 1'
_cell_length_a   5.40196515
_cell_length_b   3.87016883
_cell_length_c   10.63153798
_cell_angle_alpha   90.00053686
_cell_angle_beta   89.99665584
_cell_angle_gamma   90.00313721
_symmetry_Int_Tables_number   1
_chemical_formula_structural   CdHgBr2
_chemical_formula_sum   'Cd1 Hg1 Br2'
_cell_volume   222.26843029
_cell_formula_units_Z   1
loop_
 _symmetry_equiv_pos_site_id
 _symmetry_equiv_pos_as_xyz
  1  'x, y, z'
loop_
 _atom_site_type_symbol
 _atom_site_label
 _atom_site_symmetry_multiplicity
 _atom_site_fract_x
 _atom_site_fract_y
 _atom_site_fract_z
 _atom_site_occupancy
  Cd  Cd0  1  0.00000051  0.00000002  -0.05662752  1
  Hg  Hg1  1  0.50000021  0.50000064  0.43428055  1
  Br  Br2  1  0.00000217  0.50000756  0.11876043  1
  Br  Br3  1  -0.00000289  0.49999178  0.76828655  1
