# generated using pymatgen
data_CeAsCl
_symmetry_space_group_name_H-M   'P 1'
_cell_length_a   4.65291138
_cell_length_b   4.65290954
_cell_length_c   3.88260813
_cell_angle_alpha   89.99999463
_cell_angle_beta   90.00001538
_cell_angle_gamma   120.00000856
_symmetry_Int_Tables_number   1
_chemical_formula_structural   CeAsCl
_chemical_formula_sum   'Ce1 As1 Cl1'
_cell_volume   72.79533425
_cell_formula_units_Z   1
loop_
 _symmetry_equiv_pos_site_id
 _symmetry_equiv_pos_as_xyz
  1  'x, y, z'
loop_
 _atom_site_type_symbol
 _atom_site_label
 _atom_site_symmetry_multiplicity
 _atom_site_fract_x
 _atom_site_fract_y
 _atom_site_fract_z
 _atom_site_occupancy
  Ce  Ce0  1  0.00000012  0.00000022  -0.00000024  1
  As  As1  1  0.33333326  0.66666651  0.50000011  1
  Cl  Cl2  1  0.66666662  0.33333327  0.00000012  1
