# generated using pymatgen
data_CeEuP2
_symmetry_space_group_name_H-M   'P 1'
_cell_length_a   4.14205182
_cell_length_b   4.14183707
_cell_length_c   5.81736176
_cell_angle_alpha   89.99946853
_cell_angle_beta   90.00240606
_cell_angle_gamma   89.99918287
_symmetry_Int_Tables_number   1
_chemical_formula_structural   CeEuP2
_chemical_formula_sum   'Ce1 Eu1 P2'
_cell_volume   99.80093510
_cell_formula_units_Z   1
loop_
 _symmetry_equiv_pos_site_id
 _symmetry_equiv_pos_as_xyz
  1  'x, y, z'
loop_
 _atom_site_type_symbol
 _atom_site_label
 _atom_site_symmetry_multiplicity
 _atom_site_fract_x
 _atom_site_fract_y
 _atom_site_fract_z
 _atom_site_occupancy
  Ce  Ce0  1  0.00000096  0.00000035  0.49999966  1
  Eu  Eu1  1  0.49999936  0.49999976  -0.00000006  1
  P  P2  1  -0.00000087  -0.00000027  0.00000032  1
  P  P3  1  0.50000056  0.50000015  0.50000008  1
