# generated using pymatgen
data_CeGaAs
_symmetry_space_group_name_H-M   'P 1'
_cell_length_a   4.27483960
_cell_length_b   4.47339381
_cell_length_c   3.96243853
_cell_angle_alpha   89.99999984
_cell_angle_beta   89.99999298
_cell_angle_gamma   90.00000188
_symmetry_Int_Tables_number   1
_chemical_formula_structural   CeGaAs
_chemical_formula_sum   'Ce1 Ga1 As1'
_cell_volume   75.77387449
_cell_formula_units_Z   1
loop_
 _symmetry_equiv_pos_site_id
 _symmetry_equiv_pos_as_xyz
  1  'x, y, z'
loop_
 _atom_site_type_symbol
 _atom_site_label
 _atom_site_symmetry_multiplicity
 _atom_site_fract_x
 _atom_site_fract_y
 _atom_site_fract_z
 _atom_site_occupancy
  Ce  Ce0  1  0.00000000  0.00000000  -0.00000001  1
  Ga  Ga1  1  0.50000000  0.50000000  0.00000002  1
  As  As2  1  -0.00000001  0.50000000  0.49999999  1
