# generated using pymatgen
data_CeMnAs
_symmetry_space_group_name_H-M   'P 1'
_cell_length_a   3.25855817
_cell_length_b   3.25581031
_cell_length_c   6.40133818
_cell_angle_alpha   90.32430173
_cell_angle_beta   89.92093562
_cell_angle_gamma   119.95508274
_symmetry_Int_Tables_number   1
_chemical_formula_structural   CeMnAs
_chemical_formula_sum   'Ce1 Mn1 As1'
_cell_volume   58.84028989
_cell_formula_units_Z   1
loop_
 _symmetry_equiv_pos_site_id
 _symmetry_equiv_pos_as_xyz
  1  'x, y, z'
loop_
 _atom_site_type_symbol
 _atom_site_label
 _atom_site_symmetry_multiplicity
 _atom_site_fract_x
 _atom_site_fract_y
 _atom_site_fract_z
 _atom_site_occupancy
  Ce  Ce0  1  -0.00071836  -0.00013844  0.56050053  1
  Mn  Mn1  1  -0.00020061  -0.00173536  -0.04994305  1
  As  As2  1  0.33425231  0.66854047  0.18274251  1
