# generated using pymatgen
data_CeTlS
_symmetry_space_group_name_H-M   'P 1'
_cell_length_a   5.73880821
_cell_length_b   3.79088302
_cell_length_c   4.11067638
_cell_angle_alpha   90.00023607
_cell_angle_beta   90.00003430
_cell_angle_gamma   89.98971611
_symmetry_Int_Tables_number   1
_chemical_formula_structural   CeTlS
_chemical_formula_sum   'Ce1 Tl1 S1'
_cell_volume   89.42838229
_cell_formula_units_Z   1
loop_
 _symmetry_equiv_pos_site_id
 _symmetry_equiv_pos_as_xyz
  1  'x, y, z'
loop_
 _atom_site_type_symbol
 _atom_site_label
 _atom_site_symmetry_multiplicity
 _atom_site_fract_x
 _atom_site_fract_y
 _atom_site_fract_z
 _atom_site_occupancy
  Ce  Ce0  1  -0.00000028  -0.00000005  0.50000016  1
  Tl  Tl1  1  0.49999994  0.50000005  0.49999973  1
  S  S2  1  0.00000035  0.50000000  0.00000011  1
