# generated using pymatgen
data_CeWSe2
_symmetry_space_group_name_H-M   'P 1'
_cell_length_a   3.16499048
_cell_length_b   3.16499441
_cell_length_c   14.79424408
_cell_angle_alpha   89.99331641
_cell_angle_beta   90.00852692
_cell_angle_gamma   119.99880102
_symmetry_Int_Tables_number   1
_chemical_formula_structural   CeWSe2
_chemical_formula_sum   'Ce1 W1 Se2'
_cell_volume   128.34353841
_cell_formula_units_Z   1
loop_
 _symmetry_equiv_pos_site_id
 _symmetry_equiv_pos_as_xyz
  1  'x, y, z'
loop_
 _atom_site_type_symbol
 _atom_site_label
 _atom_site_symmetry_multiplicity
 _atom_site_fract_x
 _atom_site_fract_y
 _atom_site_fract_z
 _atom_site_occupancy
  Ce  Ce0  1  0.00026243  -0.00050398  0.50635971  1
  W  W1  1  0.66672371  0.33353167  -0.00464457  1
  Se  Se2  1  0.00009880  0.00019250  0.10982324  1
  Se  Se3  1  0.33291507  0.66677981  0.35746161  1
