# generated using pymatgen
data_CoAgI2
_symmetry_space_group_name_H-M   'P 1'
_cell_length_a   4.47703611
_cell_length_b   4.07545599
_cell_length_c   8.28740865
_cell_angle_alpha   89.99982231
_cell_angle_beta   112.20700869
_cell_angle_gamma   90.01058172
_symmetry_Int_Tables_number   1
_chemical_formula_structural   CoAgI2
_chemical_formula_sum   'Co1 Ag1 I2'
_cell_volume   139.99552514
_cell_formula_units_Z   1
loop_
 _symmetry_equiv_pos_site_id
 _symmetry_equiv_pos_as_xyz
  1  'x, y, z'
loop_
 _atom_site_type_symbol
 _atom_site_label
 _atom_site_symmetry_multiplicity
 _atom_site_fract_x
 _atom_site_fract_y
 _atom_site_fract_z
 _atom_site_occupancy
  Co  Co0  1  0.39850267  0.00002747  -0.04262434  1
  Ag  Ag1  1  -0.03279849  0.49995667  0.01041630  1
  I  I2  1  0.34017603  0.00001951  0.24969745  1
  I  I3  1  0.34811979  0.49999635  0.74981059  1
