# generated using pymatgen
data_CoHI2
_symmetry_space_group_name_H-M   'P 1'
_cell_length_a   5.86801015
_cell_length_b   4.19191749
_cell_length_c   7.64840477
_cell_angle_alpha   90.00016829
_cell_angle_beta   143.10114858
_cell_angle_gamma   89.99999840
_symmetry_Int_Tables_number   1
_chemical_formula_structural   CoHI2
_chemical_formula_sum   'Co1 H1 I2'
_cell_volume   112.95830407
_cell_formula_units_Z   1
loop_
 _symmetry_equiv_pos_site_id
 _symmetry_equiv_pos_as_xyz
  1  'x, y, z'
loop_
 _atom_site_type_symbol
 _atom_site_label
 _atom_site_symmetry_multiplicity
 _atom_site_fract_x
 _atom_site_fract_y
 _atom_site_fract_z
 _atom_site_occupancy
  Co  Co0  1  -0.09084911  0.49999927  0.33475233  1
  H  H1  1  0.65587679  -0.00000131  0.64916852  1
  I  I2  1  0.17753083  0.00000174  0.33802525  1
  I  I3  1  0.19844149  0.50000030  0.82575390  1
