# generated using pymatgen
data_CoRhBr2
_symmetry_space_group_name_H-M   'P 1'
_cell_length_a   4.08782797
_cell_length_b   3.58298637
_cell_length_c   7.68059271
_cell_angle_alpha   89.99523167
_cell_angle_beta   101.17859355
_cell_angle_gamma   90.01802550
_symmetry_Int_Tables_number   1
_chemical_formula_structural   CoRhBr2
_chemical_formula_sum   'Co1 Rh1 Br2'
_cell_volume   110.36051832
_cell_formula_units_Z   1
loop_
 _symmetry_equiv_pos_site_id
 _symmetry_equiv_pos_as_xyz
  1  'x, y, z'
loop_
 _atom_site_type_symbol
 _atom_site_label
 _atom_site_symmetry_multiplicity
 _atom_site_fract_x
 _atom_site_fract_y
 _atom_site_fract_z
 _atom_site_occupancy
  Co  Co0  1  0.00323657  -0.00003059  0.04381168  1
  Rh  Rh1  1  0.59925608  0.50000994  0.01533660  1
  Br  Br2  1  0.09632676  0.50001440  0.27532483  1
  Br  Br3  1  0.26688058  0.00000625  0.79222689  1
