# generated using pymatgen
data_CrCuBr2
_symmetry_space_group_name_H-M   'P 1'
_cell_length_a   4.07761351
_cell_length_b   3.87509721
_cell_length_c   7.45910191
_cell_angle_alpha   89.99937752
_cell_angle_beta   72.86950197
_cell_angle_gamma   89.99975256
_symmetry_Int_Tables_number   1
_chemical_formula_structural   CrCuBr2
_chemical_formula_sum   'Cr1 Cu1 Br2'
_cell_volume   112.63357513
_cell_formula_units_Z   1
loop_
 _symmetry_equiv_pos_site_id
 _symmetry_equiv_pos_as_xyz
  1  'x, y, z'
loop_
 _atom_site_type_symbol
 _atom_site_label
 _atom_site_symmetry_multiplicity
 _atom_site_fract_x
 _atom_site_fract_y
 _atom_site_fract_z
 _atom_site_occupancy
  Cr  Cr0  1  -0.07967206  0.00000513  -0.01308703  1
  Cu  Cu1  1  0.37743683  0.50000420  0.08188597  1
  Br  Br2  1  0.39710589  -0.00000219  0.28022058  1
  Br  Br3  1  0.29082935  0.49999285  0.77768048  1
