# generated using pymatgen
data_CrHCl2
_symmetry_space_group_name_H-M   'P 1'
_cell_length_a   4.44513476
_cell_length_b   3.18466380
_cell_length_c   7.11898610
_cell_angle_alpha   90.00070645
_cell_angle_beta   121.23121989
_cell_angle_gamma   89.99950634
_symmetry_Int_Tables_number   1
_chemical_formula_structural   CrHCl2
_chemical_formula_sum   'Cr1 H1 Cl2'
_cell_volume   86.17362542
_cell_formula_units_Z   1
loop_
 _symmetry_equiv_pos_site_id
 _symmetry_equiv_pos_as_xyz
  1  'x, y, z'
loop_
 _atom_site_type_symbol
 _atom_site_label
 _atom_site_symmetry_multiplicity
 _atom_site_fract_x
 _atom_site_fract_y
 _atom_site_fract_z
 _atom_site_occupancy
  Cr  Cr0  1  -0.14278448  0.50000634  0.49692816  1
  H  H1  1  0.73448360  0.00001738  0.34954159  1
  Cl  Cl2  1  0.09237321  -0.00003106  0.77582947  1
  Cl  Cl3  1  0.26392767  0.50000734  0.38490077  1
