# generated using pymatgen
data_CrMoP
_symmetry_space_group_name_H-M   'P 1'
_cell_length_a   2.93159984
_cell_length_b   2.93159999
_cell_length_c   5.01558508
_cell_angle_alpha   89.99999511
_cell_angle_beta   90.00001489
_cell_angle_gamma   90.00000000
_symmetry_Int_Tables_number   1
_chemical_formula_structural   CrMoP
_chemical_formula_sum   'Cr1 Mo1 P1'
_cell_volume   43.10533282
_cell_formula_units_Z   1
loop_
 _symmetry_equiv_pos_site_id
 _symmetry_equiv_pos_as_xyz
  1  'x, y, z'
loop_
 _atom_site_type_symbol
 _atom_site_label
 _atom_site_symmetry_multiplicity
 _atom_site_fract_x
 _atom_site_fract_y
 _atom_site_fract_z
 _atom_site_occupancy
  Cr  Cr0  1  0.49999990  0.50000002  -0.01815712  1
  Mo  Mo1  1  0.50000009  0.49999998  0.52255394  1
  P  P2  1  0.00000001  -0.00000000  0.23190319  1
