# generated using pymatgen
data_CrSbSe2
_symmetry_space_group_name_H-M   'P 1'
_cell_length_a   6.84658454
_cell_length_b   3.09006055
_cell_length_c   5.66570033
_cell_angle_alpha   90.00065978
_cell_angle_beta   105.59276090
_cell_angle_gamma   90.09222818
_symmetry_Int_Tables_number   1
_chemical_formula_structural   CrSbSe2
_chemical_formula_sum   'Cr1 Sb1 Se2'
_cell_volume   115.45396895
_cell_formula_units_Z   1
loop_
 _symmetry_equiv_pos_site_id
 _symmetry_equiv_pos_as_xyz
  1  'x, y, z'
loop_
 _atom_site_type_symbol
 _atom_site_label
 _atom_site_symmetry_multiplicity
 _atom_site_fract_x
 _atom_site_fract_y
 _atom_site_fract_z
 _atom_site_occupancy
  Cr  Cr0  1  -0.03649177  0.49992028  0.49235979  1
  Sb  Sb1  1  0.72992022  -0.00092791  0.69520825  1
  Se  Se2  1  -0.00052874  0.00004878  0.19322908  1
  Se  Se3  1  0.24810030  0.50095885  0.77690288  1
