# generated using pymatgen
data_CsAgSe
_symmetry_space_group_name_H-M   'P 1'
_cell_length_a   4.61950595
_cell_length_b   4.61950593
_cell_length_c   5.47124584
_cell_angle_alpha   89.99999526
_cell_angle_beta   90.00000275
_cell_angle_gamma   120.00001657
_symmetry_Int_Tables_number   1
_chemical_formula_structural   CsAgSe
_chemical_formula_sum   'Cs1 Ag1 Se1'
_cell_volume   101.11319844
_cell_formula_units_Z   1
loop_
 _symmetry_equiv_pos_site_id
 _symmetry_equiv_pos_as_xyz
  1  'x, y, z'
loop_
 _atom_site_type_symbol
 _atom_site_label
 _atom_site_symmetry_multiplicity
 _atom_site_fract_x
 _atom_site_fract_y
 _atom_site_fract_z
 _atom_site_occupancy
  Cs  Cs0  1  0.66666668  0.33333331  -0.00000005  1
  Ag  Ag1  1  0.33333333  0.66666665  0.50000003  1
  Se  Se2  1  -0.00000001  0.00000004  0.50000002  1
