# generated using pymatgen
data_CsAuF2
_symmetry_space_group_name_H-M   'P 1'
_cell_length_a   4.08565539
_cell_length_b   4.26221137
_cell_length_c   5.74017412
_cell_angle_alpha   90.00002608
_cell_angle_beta   89.99998193
_cell_angle_gamma   90.00000165
_symmetry_Int_Tables_number   1
_chemical_formula_structural   CsAuF2
_chemical_formula_sum   'Cs1 Au1 F2'
_cell_volume   99.95897227
_cell_formula_units_Z   1
loop_
 _symmetry_equiv_pos_site_id
 _symmetry_equiv_pos_as_xyz
  1  'x, y, z'
loop_
 _atom_site_type_symbol
 _atom_site_label
 _atom_site_symmetry_multiplicity
 _atom_site_fract_x
 _atom_site_fract_y
 _atom_site_fract_z
 _atom_site_occupancy
  Cs  Cs0  1  0.50000003  0.49999999  0.48532208  1
  Au  Au1  1  -0.00000001  -0.00000062  -0.01996018  1
  F  F2  1  0.00000007  0.00000001  0.41017266  1
  F  F3  1  -0.00000009  0.50000062  -0.06223456  1
