# generated using pymatgen
data_CsPrF
_symmetry_space_group_name_H-M   'P 1'
_cell_length_a   4.42947536
_cell_length_b   4.04224170
_cell_length_c   7.04626253
_cell_angle_alpha   90.00002936
_cell_angle_beta   90.00002132
_cell_angle_gamma   90.00003205
_symmetry_Int_Tables_number   1
_chemical_formula_structural   CsPrF
_chemical_formula_sum   'Cs1 Pr1 F1'
_cell_volume   126.16340113
_cell_formula_units_Z   1
loop_
 _symmetry_equiv_pos_site_id
 _symmetry_equiv_pos_as_xyz
  1  'x, y, z'
loop_
 _atom_site_type_symbol
 _atom_site_label
 _atom_site_symmetry_multiplicity
 _atom_site_fract_x
 _atom_site_fract_y
 _atom_site_fract_z
 _atom_site_occupancy
  Cs  Cs0  1  -0.00000023  -0.00000023  -0.00980072  1
  Pr  Pr1  1  0.50000014  0.50000030  0.45610399  1
  F  F2  1  0.00000009  0.49999993  0.35699673  1
