# generated using pymatgen
data_CsSbF2
_symmetry_space_group_name_H-M   'P 1'
_cell_length_a   4.57007329
_cell_length_b   3.51394413
_cell_length_c   6.29695843
_cell_angle_alpha   90.00000005
_cell_angle_beta   89.99999944
_cell_angle_gamma   90.00000183
_symmetry_Int_Tables_number   1
_chemical_formula_structural   CsSbF2
_chemical_formula_sum   'Cs1 Sb1 F2'
_cell_volume   101.12274341
_cell_formula_units_Z   1
loop_
 _symmetry_equiv_pos_site_id
 _symmetry_equiv_pos_as_xyz
  1  'x, y, z'
loop_
 _atom_site_type_symbol
 _atom_site_label
 _atom_site_symmetry_multiplicity
 _atom_site_fract_x
 _atom_site_fract_y
 _atom_site_fract_z
 _atom_site_occupancy
  Cs  Cs0  1  0.00000001  0.00000011  0.03704849  1
  Sb  Sb1  1  0.50000001  0.49999993  0.52165640  1
  F  F2  1  -0.00000005  0.50000002  0.47627743  1
  F  F3  1  0.50000002  0.49999994  0.15971767  1
