# generated using pymatgen
data_CsTbSe
_symmetry_space_group_name_H-M   'P 1'
_cell_length_a   4.36400769
_cell_length_b   4.36400764
_cell_length_c   8.53690586
_cell_angle_alpha   89.99999721
_cell_angle_beta   90.00000252
_cell_angle_gamma   120.00001169
_symmetry_Int_Tables_number   1
_chemical_formula_structural   CsTbSe
_chemical_formula_sum   'Cs1 Tb1 Se1'
_cell_volume   140.79981444
_cell_formula_units_Z   1
loop_
 _symmetry_equiv_pos_site_id
 _symmetry_equiv_pos_as_xyz
  1  'x, y, z'
loop_
 _atom_site_type_symbol
 _atom_site_label
 _atom_site_symmetry_multiplicity
 _atom_site_fract_x
 _atom_site_fract_y
 _atom_site_fract_z
 _atom_site_occupancy
  Cs  Cs0  1  -0.00000002  -0.00000002  -0.05770971  1
  Tb  Tb1  1  0.66666670  0.33333332  0.50711502  1
  Se  Se2  1  -0.00000001  0.00000003  0.36449469  1
