# generated using pymatgen
data_CsTlI2
_symmetry_space_group_name_H-M   'P 1'
_cell_length_a   5.31875594
_cell_length_b   5.31875915
_cell_length_c   7.50343480
_cell_angle_alpha   90.00001314
_cell_angle_beta   89.99999471
_cell_angle_gamma   89.99999138
_symmetry_Int_Tables_number   1
_chemical_formula_structural   CsTlI2
_chemical_formula_sum   'Cs1 Tl1 I2'
_cell_volume   212.26603135
_cell_formula_units_Z   1
loop_
 _symmetry_equiv_pos_site_id
 _symmetry_equiv_pos_as_xyz
  1  'x, y, z'
loop_
 _atom_site_type_symbol
 _atom_site_label
 _atom_site_symmetry_multiplicity
 _atom_site_fract_x
 _atom_site_fract_y
 _atom_site_fract_z
 _atom_site_occupancy
  Cs  Cs0  1  0.49999999  0.49999999  0.00000001  1
  Tl  Tl1  1  -0.00000001  -0.00000006  0.50000000  1
  I  I2  1  0.00000003  0.00000005  -0.00000002  1
  I  I3  1  0.49999999  0.50000002  0.50000001  1
