# generated using pymatgen
data_CsTlS
_symmetry_space_group_name_H-M   'P 1'
_cell_length_a   4.82545987
_cell_length_b   5.81793498
_cell_length_c   4.23395769
_cell_angle_alpha   90.00001253
_cell_angle_beta   90.00001160
_cell_angle_gamma   89.99996926
_symmetry_Int_Tables_number   1
_chemical_formula_structural   CsTlS
_chemical_formula_sum   'Cs1 Tl1 S1'
_cell_volume   118.86502482
_cell_formula_units_Z   1
loop_
 _symmetry_equiv_pos_site_id
 _symmetry_equiv_pos_as_xyz
  1  'x, y, z'
loop_
 _atom_site_type_symbol
 _atom_site_label
 _atom_site_symmetry_multiplicity
 _atom_site_fract_x
 _atom_site_fract_y
 _atom_site_fract_z
 _atom_site_occupancy
  Cs  Cs0  1  0.00000005  -0.00000001  0.49999999  1
  Tl  Tl1  1  0.50000001  0.50000008  0.50000003  1
  S  S2  1  -0.00000006  0.49999994  -0.00000003  1
