# generated using pymatgen
data_Cu2IF
_symmetry_space_group_name_H-M   'P 1'
_cell_length_a   4.09475691
_cell_length_b   4.09480488
_cell_length_c   5.39368165
_cell_angle_alpha   89.94400643
_cell_angle_beta   90.05707922
_cell_angle_gamma   120.03275553
_symmetry_Int_Tables_number   1
_chemical_formula_structural   Cu2IF
_chemical_formula_sum   'Cu2 I1 F1'
_cell_volume   78.29491475
_cell_formula_units_Z   1
loop_
 _symmetry_equiv_pos_site_id
 _symmetry_equiv_pos_as_xyz
  1  'x, y, z'
loop_
 _atom_site_type_symbol
 _atom_site_label
 _atom_site_symmetry_multiplicity
 _atom_site_fract_x
 _atom_site_fract_y
 _atom_site_fract_z
 _atom_site_occupancy
  Cu  Cu0  1  -0.00057723  0.00054457  0.26884726  1
  Cu  Cu1  1  0.33315261  0.66683538  0.55227465  1
  I  I2  1  0.00026899  -0.00025226  0.75675754  1
  F  F3  1  0.33382230  0.66620565  0.18102055  1
