# generated using pymatgen
data_CuAuF2
_symmetry_space_group_name_H-M   'P 1'
_cell_length_a   3.71296736
_cell_length_b   2.82306884
_cell_length_c   5.49358256
_cell_angle_alpha   90.00001440
_cell_angle_beta   90.00014947
_cell_angle_gamma   90.00032219
_symmetry_Int_Tables_number   1
_chemical_formula_structural   CuAuF2
_chemical_formula_sum   'Cu1 Au1 F2'
_cell_volume   57.58352615
_cell_formula_units_Z   1
loop_
 _symmetry_equiv_pos_site_id
 _symmetry_equiv_pos_as_xyz
  1  'x, y, z'
loop_
 _atom_site_type_symbol
 _atom_site_label
 _atom_site_symmetry_multiplicity
 _atom_site_fract_x
 _atom_site_fract_y
 _atom_site_fract_z
 _atom_site_occupancy
  Cu  Cu0  1  0.50001520  0.49999986  -0.04818798  1
  Au  Au1  1  -0.00000100  0.00000008  0.53733630  1
  F  F2  1  -0.00001398  0.49999996  -0.01522244  1
  F  F3  1  0.49999979  0.50000010  0.33647412  1
