# generated using pymatgen
data_CuBiO
_symmetry_space_group_name_H-M   'P 1'
_cell_length_a   3.67773557
_cell_length_b   4.43481262
_cell_length_c   3.25085975
_cell_angle_alpha   89.99997275
_cell_angle_beta   90.00001592
_cell_angle_gamma   89.99999500
_symmetry_Int_Tables_number   1
_chemical_formula_structural   CuBiO
_chemical_formula_sum   'Cu1 Bi1 O1'
_cell_volume   53.02174397
_cell_formula_units_Z   1
loop_
 _symmetry_equiv_pos_site_id
 _symmetry_equiv_pos_as_xyz
  1  'x, y, z'
loop_
 _atom_site_type_symbol
 _atom_site_label
 _atom_site_symmetry_multiplicity
 _atom_site_fract_x
 _atom_site_fract_y
 _atom_site_fract_z
 _atom_site_occupancy
  Cu  Cu0  1  0.49999999  0.49999982  0.49999995  1
  Bi  Bi1  1  0.00000002  0.00000001  0.00000002  1
  O  O2  1  -0.00000001  0.50000017  0.50000003  1
