# generated using pymatgen
data_CuGeCl2
_symmetry_space_group_name_H-M   'P 1'
_cell_length_a   4.73666747
_cell_length_b   3.46345314
_cell_length_c   6.62740695
_cell_angle_alpha   89.99578567
_cell_angle_beta   99.83127987
_cell_angle_gamma   89.99513648
_symmetry_Int_Tables_number   1
_chemical_formula_structural   CuGeCl2
_chemical_formula_sum   'Cu1 Ge1 Cl2'
_cell_volume   107.12747454
_cell_formula_units_Z   1
loop_
 _symmetry_equiv_pos_site_id
 _symmetry_equiv_pos_as_xyz
  1  'x, y, z'
loop_
 _atom_site_type_symbol
 _atom_site_label
 _atom_site_symmetry_multiplicity
 _atom_site_fract_x
 _atom_site_fract_y
 _atom_site_fract_z
 _atom_site_occupancy
  Cu  Cu0  1  -0.06434997  0.00000589  0.02412767  1
  Ge  Ge1  1  0.57619876  0.50006409  -0.02061186  1
  Cl  Cl2  1  0.25879335  0.49998252  0.22450530  1
  Cl  Cl3  1  0.18735786  -0.00005250  0.74967889  1
