# generated using pymatgen
data_DyAgBr2
_symmetry_space_group_name_H-M   'P 1'
_cell_length_a   5.99436065
_cell_length_b   3.88050954
_cell_length_c   8.07445441
_cell_angle_alpha   89.99896622
_cell_angle_beta   105.08960999
_cell_angle_gamma   90.00122308
_symmetry_Int_Tables_number   1
_chemical_formula_structural   DyAgBr2
_chemical_formula_sum   'Dy1 Ag1 Br2'
_cell_volume   181.34518136
_cell_formula_units_Z   1
loop_
 _symmetry_equiv_pos_site_id
 _symmetry_equiv_pos_as_xyz
  1  'x, y, z'
loop_
 _atom_site_type_symbol
 _atom_site_label
 _atom_site_symmetry_multiplicity
 _atom_site_fract_x
 _atom_site_fract_y
 _atom_site_fract_z
 _atom_site_occupancy
  Dy  Dy0  1  0.52096641  0.49999905  -0.04121869  1
  Ag  Ag1  1  -0.09572463  0.00000217  0.06786868  1
  Br  Br2  1  0.30897741  0.50000004  0.20946258  1
  Br  Br3  1  0.29378081  -0.00000125  0.72158743  1
