# generated using pymatgen
data_DyAgCl2
_symmetry_space_group_name_H-M   'P 1'
_cell_length_a   6.09379656
_cell_length_b   3.80092660
_cell_length_c   7.33245807
_cell_angle_alpha   90.00137699
_cell_angle_beta   109.62054170
_cell_angle_gamma   90.00248341
_symmetry_Int_Tables_number   1
_chemical_formula_structural   DyAgCl2
_chemical_formula_sum   'Dy1 Ag1 Cl2'
_cell_volume   159.97382787
_cell_formula_units_Z   1
loop_
 _symmetry_equiv_pos_site_id
 _symmetry_equiv_pos_as_xyz
  1  'x, y, z'
loop_
 _atom_site_type_symbol
 _atom_site_label
 _atom_site_symmetry_multiplicity
 _atom_site_fract_x
 _atom_site_fract_y
 _atom_site_fract_z
 _atom_site_occupancy
  Dy  Dy0  1  0.50948448  0.49999462  -0.04330101  1
  Ag  Ag1  1  -0.09413877  0.00003163  0.08299664  1
  Cl  Cl2  1  0.32904661  0.49999416  0.21433960  1
  Cl  Cl3  1  0.28360767  -0.00002042  0.71366476  1
