# generated using pymatgen
data_DyAlAs
_symmetry_space_group_name_H-M   'P 1'
_cell_length_a   4.50055318
_cell_length_b   4.11270910
_cell_length_c   3.79152919
_cell_angle_alpha   90.00000231
_cell_angle_beta   89.99999975
_cell_angle_gamma   90.00000014
_symmetry_Int_Tables_number   1
_chemical_formula_structural   DyAlAs
_chemical_formula_sum   'Dy1 Al1 As1'
_cell_volume   70.17918070
_cell_formula_units_Z   1
loop_
 _symmetry_equiv_pos_site_id
 _symmetry_equiv_pos_as_xyz
  1  'x, y, z'
loop_
 _atom_site_type_symbol
 _atom_site_label
 _atom_site_symmetry_multiplicity
 _atom_site_fract_x
 _atom_site_fract_y
 _atom_site_fract_z
 _atom_site_occupancy
  Dy  Dy0  1  0.50000000  0.50000000  0.49999999  1
  Al  Al1  1  0.00000000  0.00000001  0.50000001  1
  As  As2  1  0.00000000  0.49999999  -0.00000000  1
