# generated using pymatgen
data_DyAsSe4
_symmetry_space_group_name_H-M   'P 1'
_cell_length_a   3.99047058
_cell_length_b   5.50594962
_cell_length_c   8.10633734
_cell_angle_alpha   76.79725851
_cell_angle_beta   89.63979183
_cell_angle_gamma   111.12526421
_symmetry_Int_Tables_number   1
_chemical_formula_structural   DyAsSe4
_chemical_formula_sum   'Dy1 As1 Se4'
_cell_volume   160.97426021
_cell_formula_units_Z   1
loop_
 _symmetry_equiv_pos_site_id
 _symmetry_equiv_pos_as_xyz
  1  'x, y, z'
loop_
 _atom_site_type_symbol
 _atom_site_label
 _atom_site_symmetry_multiplicity
 _atom_site_fract_x
 _atom_site_fract_y
 _atom_site_fract_z
 _atom_site_occupancy
  Dy  Dy0  1  -0.06866117  0.04393770  -0.01105027  1
  As  As1  1  0.65608357  0.48010773  0.62631556  1
  Se  Se2  1  0.14556569  0.45907633  0.41106260  1
  Se  Se3  1  0.41446312  -0.00043802  0.72800519  1
  Se  Se4  1  0.37021255  0.92366163  0.25352654  1
  Se  Se5  1  0.64193624  0.46605462  -0.02445962  1
