# generated using pymatgen
data_DyCuCl2
_symmetry_space_group_name_H-M   'P 1'
_cell_length_a   5.54111861
_cell_length_b   3.70106216
_cell_length_c   7.13254016
_cell_angle_alpha   89.99962460
_cell_angle_beta   119.65670770
_cell_angle_gamma   89.99629957
_symmetry_Int_Tables_number   1
_chemical_formula_structural   DyCuCl2
_chemical_formula_sum   'Dy1 Cu1 Cl2'
_cell_volume   127.11319701
_cell_formula_units_Z   1
loop_
 _symmetry_equiv_pos_site_id
 _symmetry_equiv_pos_as_xyz
  1  'x, y, z'
loop_
 _atom_site_type_symbol
 _atom_site_label
 _atom_site_symmetry_multiplicity
 _atom_site_fract_x
 _atom_site_fract_y
 _atom_site_fract_z
 _atom_site_occupancy
  Dy  Dy0  1  0.51314933  0.50002507  -0.02947439  1
  Cu  Cu1  1  -0.04979616  -0.00009018  0.10967192  1
  Cl  Cl2  1  0.18268962  0.00003422  0.69197446  1
  Cl  Cl3  1  0.35195721  0.50003089  0.24752800  1
