# generated using pymatgen
data_DyPSe4
_symmetry_space_group_name_H-M   'P 1'
_cell_length_a   4.56867397
_cell_length_b   4.72721212
_cell_length_c   7.99094586
_cell_angle_alpha   91.26670581
_cell_angle_beta   86.39631654
_cell_angle_gamma   71.20271467
_symmetry_Int_Tables_number   1
_chemical_formula_structural   DyPSe4
_chemical_formula_sum   'Dy1 P1 Se4'
_cell_volume   162.88947605
_cell_formula_units_Z   1
loop_
 _symmetry_equiv_pos_site_id
 _symmetry_equiv_pos_as_xyz
  1  'x, y, z'
loop_
 _atom_site_type_symbol
 _atom_site_label
 _atom_site_symmetry_multiplicity
 _atom_site_fract_x
 _atom_site_fract_y
 _atom_site_fract_z
 _atom_site_occupancy
  Dy  Dy0  1  0.83000597  0.25241341  0.86147407  1
  P  P1  1  0.14405358  0.14166176  0.34294300  1
  Se  Se2  1  0.18813731  0.46475315  0.57739385  1
  Se  Se3  1  0.44557836  0.88454771  0.89408917  1
  Se  Se4  1  0.77891739  0.45781069  0.20454008  1
  Se  Se5  1  0.83420738  0.94131328  0.52205982  1
