# generated using pymatgen
data_DySbOs
_symmetry_space_group_name_H-M   'P 1'
_cell_length_a   3.90614511
_cell_length_b   3.90614367
_cell_length_c   6.36470511
_cell_angle_alpha   90.00003757
_cell_angle_beta   89.99993641
_cell_angle_gamma   120.00002195
_symmetry_Int_Tables_number   1
_chemical_formula_structural   DySbOs
_chemical_formula_sum   'Dy1 Sb1 Os1'
_cell_volume   84.10182279
_cell_formula_units_Z   1
loop_
 _symmetry_equiv_pos_site_id
 _symmetry_equiv_pos_as_xyz
  1  'x, y, z'
loop_
 _atom_site_type_symbol
 _atom_site_label
 _atom_site_symmetry_multiplicity
 _atom_site_fract_x
 _atom_site_fract_y
 _atom_site_fract_z
 _atom_site_occupancy
  Dy  Dy0  1  -0.00000031  0.00000001  -0.14760811  1
  Sb  Sb1  1  0.00000028  0.00000007  0.36409793  1
  Os  Os2  1  0.66666670  0.33333325  0.57561018  1
