# generated using pymatgen
data_DyTaTe2
_symmetry_space_group_name_H-M   'P 1'
_cell_length_a   3.81170319
_cell_length_b   3.82766367
_cell_length_c   7.10362975
_cell_angle_alpha   90.00082396
_cell_angle_beta   89.87166311
_cell_angle_gamma   90.00004123
_symmetry_Int_Tables_number   1
_chemical_formula_structural   DyTaTe2
_chemical_formula_sum   'Dy1 Ta1 Te2'
_cell_volume   103.64111432
_cell_formula_units_Z   1
loop_
 _symmetry_equiv_pos_site_id
 _symmetry_equiv_pos_as_xyz
  1  'x, y, z'
loop_
 _atom_site_type_symbol
 _atom_site_label
 _atom_site_symmetry_multiplicity
 _atom_site_fract_x
 _atom_site_fract_y
 _atom_site_fract_z
 _atom_site_occupancy
  Dy  Dy0  1  0.00649892  0.50000986  0.58495972  1
  Ta  Ta1  1  0.50878996  0.00000712  0.32201700  1
  Te  Te2  1  0.01019723  0.49999051  0.15073050  1
  Te  Te3  1  0.50551390  -0.00000748  0.75999278  1
