# generated using pymatgen
data_Er2SbP
_symmetry_space_group_name_H-M   'P 1'
_cell_length_a   4.17107977
_cell_length_b   4.17107693
_cell_length_c   5.90735068
_cell_angle_alpha   90.00004946
_cell_angle_beta   90.00004357
_cell_angle_gamma   89.99998860
_symmetry_Int_Tables_number   1
_chemical_formula_structural   Er2SbP
_chemical_formula_sum   'Er2 Sb1 P1'
_cell_volume   102.77546451
_cell_formula_units_Z   1
loop_
 _symmetry_equiv_pos_site_id
 _symmetry_equiv_pos_as_xyz
  1  'x, y, z'
loop_
 _atom_site_type_symbol
 _atom_site_label
 _atom_site_symmetry_multiplicity
 _atom_site_fract_x
 _atom_site_fract_y
 _atom_site_fract_z
 _atom_site_occupancy
  Er  Er0  1  0.00000039  -0.00000178  -0.00000442  1
  Er  Er1  1  0.50000016  0.50000212  0.50000338  1
  Sb  Sb2  1  0.49999962  0.49999975  0.00000044  1
  P  P3  1  -0.00000017  -0.00000010  0.50000060  1
