# generated using pymatgen
data_ErAgF
_symmetry_space_group_name_H-M   'P 1'
_cell_length_a   3.39079492
_cell_length_b   3.52178191
_cell_length_c   5.98161648
_cell_angle_alpha   89.99413162
_cell_angle_beta   89.99510514
_cell_angle_gamma   89.99213094
_symmetry_Int_Tables_number   1
_chemical_formula_structural   ErAgF
_chemical_formula_sum   'Er1 Ag1 F1'
_cell_volume   71.43031061
_cell_formula_units_Z   1
loop_
 _symmetry_equiv_pos_site_id
 _symmetry_equiv_pos_as_xyz
  1  'x, y, z'
loop_
 _atom_site_type_symbol
 _atom_site_label
 _atom_site_symmetry_multiplicity
 _atom_site_fract_x
 _atom_site_fract_y
 _atom_site_fract_z
 _atom_site_occupancy
  Er  Er0  1  -0.00002236  -0.00001009  -0.05070494  1
  Ag  Ag1  1  0.50005965  0.50004078  0.63450644  1
  F  F2  1  -0.00003729  0.49996931  0.15549850  1
