# generated using pymatgen
data_ErBrO
_symmetry_space_group_name_H-M   'P 1'
_cell_length_a   3.23874430
_cell_length_b   3.23874436
_cell_length_c   5.31138089
_cell_angle_alpha   89.99990544
_cell_angle_beta   90.00006765
_cell_angle_gamma   89.99996975
_symmetry_Int_Tables_number   1
_chemical_formula_structural   ErBrO
_chemical_formula_sum   'Er1 Br1 O1'
_cell_volume   55.71354307
_cell_formula_units_Z   1
loop_
 _symmetry_equiv_pos_site_id
 _symmetry_equiv_pos_as_xyz
  1  'x, y, z'
loop_
 _atom_site_type_symbol
 _atom_site_label
 _atom_site_symmetry_multiplicity
 _atom_site_fract_x
 _atom_site_fract_y
 _atom_site_fract_z
 _atom_site_occupancy
  Er  Er0  1  0.00000001  0.00000004  0.49999993  1
  Br  Br1  1  0.50000020  0.49999991  0.00000003  1
  O  O2  1  0.49999979  0.50000004  0.50000004  1
