# generated using pymatgen
data_ErCrSb
_symmetry_space_group_name_H-M   'P 1'
_cell_length_a   4.39549288
_cell_length_b   4.39547834
_cell_length_c   5.02470848
_cell_angle_alpha   90.00032650
_cell_angle_beta   89.99989611
_cell_angle_gamma   119.99986047
_symmetry_Int_Tables_number   1
_chemical_formula_structural   ErCrSb
_chemical_formula_sum   'Er1 Cr1 Sb1'
_cell_volume   84.07286310
_cell_formula_units_Z   1
loop_
 _symmetry_equiv_pos_site_id
 _symmetry_equiv_pos_as_xyz
  1  'x, y, z'
loop_
 _atom_site_type_symbol
 _atom_site_label
 _atom_site_symmetry_multiplicity
 _atom_site_fract_x
 _atom_site_fract_y
 _atom_site_fract_z
 _atom_site_occupancy
  Er  Er0  1  -0.00000035  -0.00000041  0.50000017  1
  Cr  Cr1  1  -0.00000067  -0.00000022  -0.00000007  1
  Sb  Sb2  1  0.33333435  0.66666730  -0.00000010  1
