# generated using pymatgen
data_ErCrAs
_symmetry_space_group_name_H-M   'P 1'
_cell_length_a   3.56078677
_cell_length_b   3.56064470
_cell_length_c   6.40647979
_cell_angle_alpha   89.99943667
_cell_angle_beta   90.00047174
_cell_angle_gamma   119.99462843
_symmetry_Int_Tables_number   1
_chemical_formula_structural   ErCrAs
_chemical_formula_sum   'Er1 Cr1 As1'
_cell_volume   70.34742467
_cell_formula_units_Z   1
loop_
 _symmetry_equiv_pos_site_id
 _symmetry_equiv_pos_as_xyz
  1  'x, y, z'
loop_
 _atom_site_type_symbol
 _atom_site_label
 _atom_site_symmetry_multiplicity
 _atom_site_fract_x
 _atom_site_fract_y
 _atom_site_fract_z
 _atom_site_occupancy
  Er  Er0  1  0.00001158  0.00001258  0.02273920  1
  Cr  Cr1  1  -0.00001109  -0.00001700  0.48966030  1
  As  As2  1  0.33333285  0.66667109  0.70090050  1
