# generated using pymatgen
data_ErI2F
_symmetry_space_group_name_H-M   'P 1'
_cell_length_a   4.44052606
_cell_length_b   4.44052747
_cell_length_c   5.70877713
_cell_angle_alpha   89.99997167
_cell_angle_beta   89.99996682
_cell_angle_gamma   89.99998529
_symmetry_Int_Tables_number   1
_chemical_formula_structural   ErI2F
_chemical_formula_sum   'Er1 I2 F1'
_cell_volume   112.56725421
_cell_formula_units_Z   1
loop_
 _symmetry_equiv_pos_site_id
 _symmetry_equiv_pos_as_xyz
  1  'x, y, z'
loop_
 _atom_site_type_symbol
 _atom_site_label
 _atom_site_symmetry_multiplicity
 _atom_site_fract_x
 _atom_site_fract_y
 _atom_site_fract_z
 _atom_site_occupancy
  Er  Er0  1  0.00000021  0.00000003  0.50000026  1
  I  I1  1  -0.00000006  -0.00000005  -0.00000004  1
  I  I2  1  0.49999995  0.50000007  0.49999989  1
  F  F3  1  0.49999991  0.49999994  -0.00000012  1
