# generated using pymatgen
data_ErTlF
_symmetry_space_group_name_H-M   'P 1'
_cell_length_a   3.59476120
_cell_length_b   3.68863305
_cell_length_c   6.03560940
_cell_angle_alpha   90.00026122
_cell_angle_beta   89.99789064
_cell_angle_gamma   89.99508940
_symmetry_Int_Tables_number   1
_chemical_formula_structural   ErTlF
_chemical_formula_sum   'Er1 Tl1 F1'
_cell_volume   80.03070156
_cell_formula_units_Z   1
loop_
 _symmetry_equiv_pos_site_id
 _symmetry_equiv_pos_as_xyz
  1  'x, y, z'
loop_
 _atom_site_type_symbol
 _atom_site_label
 _atom_site_symmetry_multiplicity
 _atom_site_fract_x
 _atom_site_fract_y
 _atom_site_fract_z
 _atom_site_occupancy
  Er  Er0  1  -0.00000046  -0.00003190  -0.03858198  1
  Tl  Tl1  1  0.49999973  0.49999430  0.62077561  1
  F  F2  1  0.00000073  0.50003760  0.14210638  1
