# generated using pymatgen
data_ErTlBr
_symmetry_space_group_name_H-M   'P 1'
_cell_length_a   7.00480044
_cell_length_b   7.00716102
_cell_length_c   3.46805901
_cell_angle_alpha   90.04554331
_cell_angle_beta   90.05882641
_cell_angle_gamma   51.22353830
_symmetry_Int_Tables_number   1
_chemical_formula_structural   ErTlBr
_chemical_formula_sum   'Er1 Tl1 Br1'
_cell_volume   132.70684679
_cell_formula_units_Z   1
loop_
 _symmetry_equiv_pos_site_id
 _symmetry_equiv_pos_as_xyz
  1  'x, y, z'
loop_
 _atom_site_type_symbol
 _atom_site_label
 _atom_site_symmetry_multiplicity
 _atom_site_fract_x
 _atom_site_fract_y
 _atom_site_fract_z
 _atom_site_occupancy
  Er  Er0  1  0.04651739  0.04646126  -0.00035548  1
  Tl  Tl1  1  0.47812288  0.47816638  0.00010663  1
  Br  Br2  1  0.21805972  0.21807237  0.50024886  1
