# generated using pymatgen
data_EuGeBr2
_symmetry_space_group_name_H-M   'P 1'
_cell_length_a   4.99011811
_cell_length_b   3.89733529
_cell_length_c   9.48990662
_cell_angle_alpha   89.99088959
_cell_angle_beta   121.18438738
_cell_angle_gamma   89.99686574
_symmetry_Int_Tables_number   1
_chemical_formula_structural   EuGeBr2
_chemical_formula_sum   'Eu1 Ge1 Br2'
_cell_volume   157.89314351
_cell_formula_units_Z   1
loop_
 _symmetry_equiv_pos_site_id
 _symmetry_equiv_pos_as_xyz
  1  'x, y, z'
loop_
 _atom_site_type_symbol
 _atom_site_label
 _atom_site_symmetry_multiplicity
 _atom_site_fract_x
 _atom_site_fract_y
 _atom_site_fract_z
 _atom_site_occupancy
  Eu  Eu0  1  0.11216909  0.50000194  0.51403639  1
  Ge  Ge1  1  0.55868957  0.00002196  0.45072547  1
  Br  Br2  1  0.18283465  0.50006327  0.21507076  1
  Br  Br3  1  0.18430670  -0.00008717  0.76786738  1
