# generated using pymatgen
data_EuLuSb2
_symmetry_space_group_name_H-M   'P 1'
_cell_length_a   4.43901282
_cell_length_b   4.43901483
_cell_length_c   6.25933512
_cell_angle_alpha   90.00066861
_cell_angle_beta   89.99970002
_cell_angle_gamma   90.00072849
_symmetry_Int_Tables_number   1
_chemical_formula_structural   EuLuSb2
_chemical_formula_sum   'Eu1 Lu1 Sb2'
_cell_volume   123.33922044
_cell_formula_units_Z   1
loop_
 _symmetry_equiv_pos_site_id
 _symmetry_equiv_pos_as_xyz
  1  'x, y, z'
loop_
 _atom_site_type_symbol
 _atom_site_label
 _atom_site_symmetry_multiplicity
 _atom_site_fract_x
 _atom_site_fract_y
 _atom_site_fract_z
 _atom_site_occupancy
  Eu  Eu0  1  0.00000179  -0.00000195  0.00000319  1
  Lu  Lu1  1  0.50000126  0.49999835  0.50000077  1
  Sb  Sb2  1  0.00000075  0.00000290  0.49999911  1
  Sb  Sb3  1  0.49999619  0.50000069  -0.00000307  1
