# generated using pymatgen
data_EuNbSe2
_symmetry_space_group_name_H-M   'P 1'
_cell_length_a   3.71509990
_cell_length_b   3.71471144
_cell_length_c   7.53562046
_cell_angle_alpha   90.00194551
_cell_angle_beta   90.01047826
_cell_angle_gamma   120.00067613
_symmetry_Int_Tables_number   1
_chemical_formula_structural   EuNbSe2
_chemical_formula_sum   'Eu1 Nb1 Se2'
_cell_volume   90.06213882
_cell_formula_units_Z   1
loop_
 _symmetry_equiv_pos_site_id
 _symmetry_equiv_pos_as_xyz
  1  'x, y, z'
loop_
 _atom_site_type_symbol
 _atom_site_label
 _atom_site_symmetry_multiplicity
 _atom_site_fract_x
 _atom_site_fract_y
 _atom_site_fract_z
 _atom_site_occupancy
  Eu  Eu0  1  0.00001045  0.00001138  0.61318602  1
  Nb  Nb1  1  -0.00002008  -0.00000972  0.11314362  1
  Se  Se2  1  0.33331027  0.66668268  0.32992544  1
  Se  Se3  1  0.66669936  0.33331565  -0.10415508  1
