# generated using pymatgen
data_EuTmTe2
_symmetry_space_group_name_H-M   'P 1'
_cell_length_a   4.43752223
_cell_length_b   4.43752250
_cell_length_c   6.26283011
_cell_angle_alpha   89.99999947
_cell_angle_beta   90.00000044
_cell_angle_gamma   90.00000568
_symmetry_Int_Tables_number   1
_chemical_formula_structural   EuTmTe2
_chemical_formula_sum   'Eu1 Tm1 Te2'
_cell_volume   123.32517508
_cell_formula_units_Z   1
loop_
 _symmetry_equiv_pos_site_id
 _symmetry_equiv_pos_as_xyz
  1  'x, y, z'
loop_
 _atom_site_type_symbol
 _atom_site_label
 _atom_site_symmetry_multiplicity
 _atom_site_fract_x
 _atom_site_fract_y
 _atom_site_fract_z
 _atom_site_occupancy
  Eu  Eu0  1  -0.00000001  0.00000001  -0.00000001  1
  Tm  Tm1  1  0.50000000  0.50000001  0.50000000  1
  Te  Te2  1  0.00000001  -0.00000000  0.50000001  1
  Te  Te3  1  0.50000000  0.49999999  0.00000000  1
