# generated using pymatgen
data_FeCuBr2
_symmetry_space_group_name_H-M   'P 1'
_cell_length_a   5.43079604
_cell_length_b   3.90231325
_cell_length_c   7.12460795
_cell_angle_alpha   97.42013707
_cell_angle_beta   139.62669796
_cell_angle_gamma   87.39693781
_symmetry_Int_Tables_number   1
_chemical_formula_structural   FeCuBr2
_chemical_formula_sum   'Fe1 Cu1 Br2'
_cell_volume   96.65629188
_cell_formula_units_Z   1
loop_
 _symmetry_equiv_pos_site_id
 _symmetry_equiv_pos_as_xyz
  1  'x, y, z'
loop_
 _atom_site_type_symbol
 _atom_site_label
 _atom_site_symmetry_multiplicity
 _atom_site_fract_x
 _atom_site_fract_y
 _atom_site_fract_z
 _atom_site_occupancy
  Fe  Fe0  1  0.64665461  0.39128078  -0.04644182  1
  Cu  Cu1  1  0.80448194  0.10980146  0.71998429  1
  Br  Br2  1  0.00289050  0.55626887  0.63248732  1
  Br  Br3  1  0.07397294  -0.05735110  0.19727022  1
