# generated using pymatgen
data_FeSiOs
_symmetry_space_group_name_H-M   'P 1'
_cell_length_a   2.79243388
_cell_length_b   2.79243399
_cell_length_c   5.21643517
_cell_angle_alpha   89.99998546
_cell_angle_beta   90.00000053
_cell_angle_gamma   89.99999877
_symmetry_Int_Tables_number   1
_chemical_formula_structural   FeSiOs
_chemical_formula_sum   'Fe1 Si1 Os1'
_cell_volume   40.67613018
_cell_formula_units_Z   1
loop_
 _symmetry_equiv_pos_site_id
 _symmetry_equiv_pos_as_xyz
  1  'x, y, z'
loop_
 _atom_site_type_symbol
 _atom_site_label
 _atom_site_symmetry_multiplicity
 _atom_site_fract_x
 _atom_site_fract_y
 _atom_site_fract_z
 _atom_site_occupancy
  Fe  Fe0  1  0.49999999  0.50000010  -0.02801796  1
  Si  Si1  1  0.00000001  -0.00000001  0.23366306  1
  Os  Os2  1  0.50000001  0.49999991  0.52755491  1
