# generated using pymatgen
data_GaAsSe4
_symmetry_space_group_name_H-M   'P 1'
_cell_length_a   5.98354026
_cell_length_b   5.99862268
_cell_length_c   6.46459885
_cell_angle_alpha   117.75543790
_cell_angle_beta   117.69259188
_cell_angle_gamma   89.84227931
_symmetry_Int_Tables_number   1
_chemical_formula_structural   GaAsSe4
_chemical_formula_sum   'Ga1 As1 Se4'
_cell_volume   174.92599608
_cell_formula_units_Z   1
loop_
 _symmetry_equiv_pos_site_id
 _symmetry_equiv_pos_as_xyz
  1  'x, y, z'
loop_
 _atom_site_type_symbol
 _atom_site_label
 _atom_site_symmetry_multiplicity
 _atom_site_fract_x
 _atom_site_fract_y
 _atom_site_fract_z
 _atom_site_occupancy
  Ga  Ga0  1  0.25019428  0.74237266  0.49524779  1
  As  As1  1  0.50032205  0.49268481  0.99498569  1
  Se  Se2  1  0.12869904  0.13048357  0.73393165  1
  Se  Se3  1  0.39836610  0.86340974  0.25650505  1
  Se  Se4  1  0.61182764  0.59598697  0.73649316  1
  Se  Se5  1  0.86329089  0.38246225  0.25683667  1
