# generated using pymatgen
data_GaHgI2
_symmetry_space_group_name_H-M   'P 1'
_cell_length_a   5.70840879
_cell_length_b   4.32913255
_cell_length_c   10.66331241
_cell_angle_alpha   90.00054330
_cell_angle_beta   90.00410946
_cell_angle_gamma   90.00039715
_symmetry_Int_Tables_number   1
_chemical_formula_structural   GaHgI2
_chemical_formula_sum   'Ga1 Hg1 I2'
_cell_volume   263.51666269
_cell_formula_units_Z   1
loop_
 _symmetry_equiv_pos_site_id
 _symmetry_equiv_pos_as_xyz
  1  'x, y, z'
loop_
 _atom_site_type_symbol
 _atom_site_label
 _atom_site_symmetry_multiplicity
 _atom_site_fract_x
 _atom_site_fract_y
 _atom_site_fract_z
 _atom_site_occupancy
  Ga  Ga0  1  0.00000187  -0.00000063  0.45599681  1
  Hg  Hg1  1  0.49999374  0.50000162  0.07525759  1
  I  I2  1  0.00000449  0.50000158  0.08144193  1
  I  I3  1  -0.00000009  0.49999743  0.63910367  1
