# generated using pymatgen
data_GaOsS
_symmetry_space_group_name_H-M   'P 1'
_cell_length_a   4.38800290
_cell_length_b   3.56036572
_cell_length_c   3.56037252
_cell_angle_alpha   89.99991584
_cell_angle_beta   90.00002325
_cell_angle_gamma   90.00007582
_symmetry_Int_Tables_number   1
_chemical_formula_structural   GaOsS
_chemical_formula_sum   'Ga1 Os1 S1'
_cell_volume   55.62332641
_cell_formula_units_Z   1
loop_
 _symmetry_equiv_pos_site_id
 _symmetry_equiv_pos_as_xyz
  1  'x, y, z'
loop_
 _atom_site_type_symbol
 _atom_site_label
 _atom_site_symmetry_multiplicity
 _atom_site_fract_x
 _atom_site_fract_y
 _atom_site_fract_z
 _atom_site_occupancy
  Ga  Ga0  1  -0.00000002  0.00000010  0.00000001  1
  Os  Os1  1  0.50000001  0.49999993  0.49999991  1
  S  S2  1  0.00000001  0.49999997  0.50000008  1
