# generated using pymatgen
data_GaTeF
_symmetry_space_group_name_H-M   'P 1'
_cell_length_a   3.30492674
_cell_length_b   3.30492601
_cell_length_c   5.92314498
_cell_angle_alpha   89.99999809
_cell_angle_beta   89.99999809
_cell_angle_gamma   90.00000191
_symmetry_Int_Tables_number   1
_chemical_formula_structural   GaTeF
_chemical_formula_sum   'Ga1 Te1 F1'
_cell_volume   64.69577816
_cell_formula_units_Z   1
loop_
 _symmetry_equiv_pos_site_id
 _symmetry_equiv_pos_as_xyz
  1  'x, y, z'
loop_
 _atom_site_type_symbol
 _atom_site_label
 _atom_site_symmetry_multiplicity
 _atom_site_fract_x
 _atom_site_fract_y
 _atom_site_fract_z
 _atom_site_occupancy
  Ga  Ga0  1  0.50000002  0.49999996  0.00000000  1
  Te  Te1  1  0.50000000  0.49999999  0.50000000  1
  F  F2  1  -0.00000002  0.00000005  -0.00000000  1
