# generated using pymatgen
data_Gd2SbP
_symmetry_space_group_name_H-M   'P 1'
_cell_length_a   4.25779136
_cell_length_b   4.25779229
_cell_length_c   6.02903224
_cell_angle_alpha   89.99999520
_cell_angle_beta   90.00002284
_cell_angle_gamma   90.00001130
_symmetry_Int_Tables_number   1
_chemical_formula_structural   Gd2SbP
_chemical_formula_sum   'Gd2 Sb1 P1'
_cell_volume   109.29906677
_cell_formula_units_Z   1
loop_
 _symmetry_equiv_pos_site_id
 _symmetry_equiv_pos_as_xyz
  1  'x, y, z'
loop_
 _atom_site_type_symbol
 _atom_site_label
 _atom_site_symmetry_multiplicity
 _atom_site_fract_x
 _atom_site_fract_y
 _atom_site_fract_z
 _atom_site_occupancy
  Gd  Gd0  1  0.00000001  0.00000007  0.00000013  1
  Gd  Gd1  1  0.49999996  0.49999994  0.49999993  1
  Sb  Sb2  1  0.49999999  0.50000003  -0.00000003  1
  P  P3  1  0.00000004  -0.00000004  0.49999996  1
