# generated using pymatgen
data_GdHgF
_symmetry_space_group_name_H-M   'P 1'
_cell_length_a   3.81341840
_cell_length_b   3.83817364
_cell_length_c   5.55432804
_cell_angle_alpha   90.02318833
_cell_angle_beta   89.99879347
_cell_angle_gamma   89.99871210
_symmetry_Int_Tables_number   1
_chemical_formula_structural   GdHgF
_chemical_formula_sum   'Gd1 Hg1 F1'
_cell_volume   81.29625990
_cell_formula_units_Z   1
loop_
 _symmetry_equiv_pos_site_id
 _symmetry_equiv_pos_as_xyz
  1  'x, y, z'
loop_
 _atom_site_type_symbol
 _atom_site_label
 _atom_site_symmetry_multiplicity
 _atom_site_fract_x
 _atom_site_fract_y
 _atom_site_fract_z
 _atom_site_occupancy
  Gd  Gd0  1  0.00000067  0.00011311  -0.04538892  1
  Hg  Hg1  1  0.50000672  0.49979097  0.62968357  1
  F  F2  1  -0.00000739  0.50009592  0.15140535  1
