# generated using pymatgen
data_GdOF
_symmetry_space_group_name_H-M   'P 1'
_cell_length_a   3.72899346
_cell_length_b   3.72836542
_cell_length_c   3.85469326
_cell_angle_alpha   89.99007678
_cell_angle_beta   89.98827625
_cell_angle_gamma   119.98432470
_symmetry_Int_Tables_number   1
_chemical_formula_structural   GdOF
_chemical_formula_sum   'Gd1 O1 F1'
_cell_volume   46.41935426
_cell_formula_units_Z   1
loop_
 _symmetry_equiv_pos_site_id
 _symmetry_equiv_pos_as_xyz
  1  'x, y, z'
loop_
 _atom_site_type_symbol
 _atom_site_label
 _atom_site_symmetry_multiplicity
 _atom_site_fract_x
 _atom_site_fract_y
 _atom_site_fract_z
 _atom_site_occupancy
  Gd  Gd0  1  0.00004160  0.00024990  0.00005282  1
  O  O1  1  0.33323802  0.66656004  -0.00003058  1
  F  F2  1  0.66672038  0.33319006  0.49997777  1
