# generated using pymatgen
data_GdTmAs2
_symmetry_space_group_name_H-M   'P 1'
_cell_length_a   4.11299313
_cell_length_b   4.11299348
_cell_length_c   5.81717516
_cell_angle_alpha   90.00000325
_cell_angle_beta   90.00001190
_cell_angle_gamma   89.99998273
_symmetry_Int_Tables_number   1
_chemical_formula_structural   GdTmAs2
_chemical_formula_sum   'Gd1 Tm1 As2'
_cell_volume   98.40748804
_cell_formula_units_Z   1
loop_
 _symmetry_equiv_pos_site_id
 _symmetry_equiv_pos_as_xyz
  1  'x, y, z'
loop_
 _atom_site_type_symbol
 _atom_site_label
 _atom_site_symmetry_multiplicity
 _atom_site_fract_x
 _atom_site_fract_y
 _atom_site_fract_z
 _atom_site_occupancy
  Gd  Gd0  1  0.00000002  -0.00000003  0.00000015  1
  Tm  Tm1  1  0.49999996  0.49999990  0.49999994  1
  As  As2  1  -0.00000004  0.00000009  0.49999996  1
  As  As3  1  0.50000006  0.50000004  -0.00000005  1
