# generated using pymatgen
data_HfCrS
_symmetry_space_group_name_H-M   'P 1'
_cell_length_a   3.53401145
_cell_length_b   3.53400611
_cell_length_c   4.18055177
_cell_angle_alpha   89.99994999
_cell_angle_beta   90.00000004
_cell_angle_gamma   89.99998865
_symmetry_Int_Tables_number   1
_chemical_formula_structural   HfCrS
_chemical_formula_sum   'Hf1 Cr1 S1'
_cell_volume   52.21182265
_cell_formula_units_Z   1
loop_
 _symmetry_equiv_pos_site_id
 _symmetry_equiv_pos_as_xyz
  1  'x, y, z'
loop_
 _atom_site_type_symbol
 _atom_site_label
 _atom_site_symmetry_multiplicity
 _atom_site_fract_x
 _atom_site_fract_y
 _atom_site_fract_z
 _atom_site_occupancy
  Hf  Hf0  1  0.50000000  0.50000000  0.50000000  1
  Cr  Cr1  1  0.00000001  -0.00000001  -0.00000000  1
  S  S2  1  -0.00000000  0.00000000  0.50000000  1
