# generated using pymatgen
data_HfCSe2
_symmetry_space_group_name_H-M   'P 1'
_cell_length_a   3.62817337
_cell_length_b   3.62228175
_cell_length_c   7.99925620
_cell_angle_alpha   82.91951225
_cell_angle_beta   96.99771566
_cell_angle_gamma   128.88021690
_symmetry_Int_Tables_number   1
_chemical_formula_structural   HfCSe2
_chemical_formula_sum   'Hf1 C1 Se2'
_cell_volume   81.07951273
_cell_formula_units_Z   1
loop_
 _symmetry_equiv_pos_site_id
 _symmetry_equiv_pos_as_xyz
  1  'x, y, z'
loop_
 _atom_site_type_symbol
 _atom_site_label
 _atom_site_symmetry_multiplicity
 _atom_site_fract_x
 _atom_site_fract_y
 _atom_site_fract_z
 _atom_site_occupancy
  Hf  Hf0  1  0.04186543  -0.04205594  0.68880412  1
  C  C1  1  0.37640522  0.62357152  -0.15630344  1
  Se  Se2  1  -0.05968277  0.05854355  0.00741497  1
  Se  Se3  1  0.30807879  0.69327420  0.45778436  1
