# generated using pymatgen
data_HfMnSb2
_symmetry_space_group_name_H-M   'P 1'
_cell_length_a   3.82586587
_cell_length_b   4.22020736
_cell_length_c   5.75442327
_cell_angle_alpha   90.00001111
_cell_angle_beta   109.59774535
_cell_angle_gamma   89.99999860
_symmetry_Int_Tables_number   1
_chemical_formula_structural   HfMnSb2
_chemical_formula_sum   'Hf1 Mn1 Sb2'
_cell_volume   87.52836359
_cell_formula_units_Z   1
loop_
 _symmetry_equiv_pos_site_id
 _symmetry_equiv_pos_as_xyz
  1  'x, y, z'
loop_
 _atom_site_type_symbol
 _atom_site_label
 _atom_site_symmetry_multiplicity
 _atom_site_fract_x
 _atom_site_fract_y
 _atom_site_fract_z
 _atom_site_occupancy
  Hf  Hf0  1  0.16943573  -0.00000003  0.46235290  1
  Mn  Mn1  1  0.34354505  0.50000004  0.81639598  1
  Sb  Sb2  1  0.60298792  0.49999995  0.32788692  1
  Sb  Sb3  1  0.88393131  0.00000005  0.89336419  1
