# generated using pymatgen
data_HfRuSe2
_symmetry_space_group_name_H-M   'P 1'
_cell_length_a   3.41081087
_cell_length_b   3.40942280
_cell_length_c   13.19288698
_cell_angle_alpha   90.04167686
_cell_angle_beta   89.95683975
_cell_angle_gamma   119.75132966
_symmetry_Int_Tables_number   1
_chemical_formula_structural   HfRuSe2
_chemical_formula_sum   'Hf1 Ru1 Se2'
_cell_volume   133.19613078
_cell_formula_units_Z   1
loop_
 _symmetry_equiv_pos_site_id
 _symmetry_equiv_pos_as_xyz
  1  'x, y, z'
loop_
 _atom_site_type_symbol
 _atom_site_label
 _atom_site_symmetry_multiplicity
 _atom_site_fract_x
 _atom_site_fract_y
 _atom_site_fract_z
 _atom_site_occupancy
  Hf  Hf0  1  -0.00100331  0.00086709  0.49880836  1
  Ru  Ru1  1  0.66623083  0.33357168  0.01409231  1
  Se  Se2  1  0.00078034  -0.00058590  0.11073557  1
  Se  Se3  1  0.33399214  0.66614714  0.36646377  1
