# generated using pymatgen
data_HgICl
_symmetry_space_group_name_H-M   'P 1'
_cell_length_a   4.22217646
_cell_length_b   4.22217535
_cell_length_c   6.82302285
_cell_angle_alpha   89.99999996
_cell_angle_beta   89.99996064
_cell_angle_gamma   120.00000869
_symmetry_Int_Tables_number   1
_chemical_formula_structural   HgICl
_chemical_formula_sum   'Hg1 I1 Cl1'
_cell_volume   105.33678662
_cell_formula_units_Z   1
loop_
 _symmetry_equiv_pos_site_id
 _symmetry_equiv_pos_as_xyz
  1  'x, y, z'
loop_
 _atom_site_type_symbol
 _atom_site_label
 _atom_site_symmetry_multiplicity
 _atom_site_fract_x
 _atom_site_fract_y
 _atom_site_fract_z
 _atom_site_occupancy
  Hg  Hg0  1  0.33333323  0.66666658  0.11555013  1
  I  I1  1  0.66666678  0.33333334  0.86024843  1
  Cl  Cl2  1  -0.00000001  0.00000007  0.32420144  1
