# generated using pymatgen
data_HgMoI2
_symmetry_space_group_name_H-M   'P 1'
_cell_length_a   5.44451359
_cell_length_b   8.62883573
_cell_length_c   5.83795946
_cell_angle_alpha   89.99997855
_cell_angle_beta   89.99998894
_cell_angle_gamma   89.99998951
_symmetry_Int_Tables_number   1
_chemical_formula_structural   HgMoI2
_chemical_formula_sum   'Hg1 Mo1 I2'
_cell_volume   274.26624606
_cell_formula_units_Z   1
loop_
 _symmetry_equiv_pos_site_id
 _symmetry_equiv_pos_as_xyz
  1  'x, y, z'
loop_
 _atom_site_type_symbol
 _atom_site_label
 _atom_site_symmetry_multiplicity
 _atom_site_fract_x
 _atom_site_fract_y
 _atom_site_fract_z
 _atom_site_occupancy
  Hg  Hg0  1  -0.00000001  0.00000000  0.00000001  1
  Mo  Mo1  1  0.50000001  0.50000000  0.49999998  1
  I  I2  1  0.00000001  0.50000001  0.50000000  1
  I  I3  1  -0.00000001  -0.00000000  0.50000001  1
