# generated using pymatgen
data_HgWI2
_symmetry_space_group_name_H-M   'P 1'
_cell_length_a   5.41983877
_cell_length_b   8.67813960
_cell_length_c   5.83862994
_cell_angle_alpha   89.99993234
_cell_angle_beta   89.99998668
_cell_angle_gamma   90.00000162
_symmetry_Int_Tables_number   1
_chemical_formula_structural   HgWI2
_chemical_formula_sum   'Hg1 W1 I2'
_cell_volume   274.61480638
_cell_formula_units_Z   1
loop_
 _symmetry_equiv_pos_site_id
 _symmetry_equiv_pos_as_xyz
  1  'x, y, z'
loop_
 _atom_site_type_symbol
 _atom_site_label
 _atom_site_symmetry_multiplicity
 _atom_site_fract_x
 _atom_site_fract_y
 _atom_site_fract_z
 _atom_site_occupancy
  Hg  Hg0  1  0.00000000  0.00000000  -0.00000005  1
  W  W1  1  0.49999999  0.49999999  0.50000001  1
  I  I2  1  -0.00000001  0.50000000  0.50000005  1
  I  I3  1  0.00000001  0.00000000  0.49999999  1
