# generated using pymatgen
data_HoCoP
_symmetry_space_group_name_H-M   'P 1'
_cell_length_a   3.66877748
_cell_length_b   3.66877700
_cell_length_c   5.13813537
_cell_angle_alpha   89.99989380
_cell_angle_beta   90.00015543
_cell_angle_gamma   120.00006842
_symmetry_Int_Tables_number   1
_chemical_formula_structural   HoCoP
_chemical_formula_sum   'Ho1 Co1 P1'
_cell_volume   59.89334393
_cell_formula_units_Z   1
loop_
 _symmetry_equiv_pos_site_id
 _symmetry_equiv_pos_as_xyz
  1  'x, y, z'
loop_
 _atom_site_type_symbol
 _atom_site_label
 _atom_site_symmetry_multiplicity
 _atom_site_fract_x
 _atom_site_fract_y
 _atom_site_fract_z
 _atom_site_occupancy
  Ho  Ho0  1  -0.00000034  0.00000012  -0.02092532  1
  Co  Co1  1  0.00000037  -0.00000018  0.47735997  1
  P  P2  1  0.33333330  0.66666672  0.37689868  1
