# generated using pymatgen
data_HoCuF2
_symmetry_space_group_name_H-M   'P 1'
_cell_length_a   3.98111527
_cell_length_b   3.81958201
_cell_length_c   4.95250471
_cell_angle_alpha   89.95337911
_cell_angle_beta   89.57856503
_cell_angle_gamma   90.01299162
_symmetry_Int_Tables_number   1
_chemical_formula_structural   HoCuF2
_chemical_formula_sum   'Ho1 Cu1 F2'
_cell_volume   75.30669450
_cell_formula_units_Z   1
loop_
 _symmetry_equiv_pos_site_id
 _symmetry_equiv_pos_as_xyz
  1  'x, y, z'
loop_
 _atom_site_type_symbol
 _atom_site_label
 _atom_site_symmetry_multiplicity
 _atom_site_fract_x
 _atom_site_fract_y
 _atom_site_fract_z
 _atom_site_occupancy
  Ho  Ho0  1  1.10792638  0.50000842  0.26623512  1
  Cu  Cu1  1  -0.02115183  -0.00029466  0.72090035  1
  F  F2  1  -0.39264524  0.50007449  0.39747260  1
  F  F3  1  0.30217068  0.00021175  0.13209193  1
