# generated using pymatgen
data_HoErAs2
_symmetry_space_group_name_H-M   'P 1'
_cell_length_a   4.08657822
_cell_length_b   4.08657812
_cell_length_c   5.78433209
_cell_angle_alpha   90.00000755
_cell_angle_beta   90.00000442
_cell_angle_gamma   89.99999944
_symmetry_Int_Tables_number   1
_chemical_formula_structural   HoErAs2
_chemical_formula_sum   'Ho1 Er1 As2'
_cell_volume   96.59904661
_cell_formula_units_Z   1
loop_
 _symmetry_equiv_pos_site_id
 _symmetry_equiv_pos_as_xyz
  1  'x, y, z'
loop_
 _atom_site_type_symbol
 _atom_site_label
 _atom_site_symmetry_multiplicity
 _atom_site_fract_x
 _atom_site_fract_y
 _atom_site_fract_z
 _atom_site_occupancy
  Ho  Ho0  1  0.49999999  0.49999998  0.00000000  1
  Er  Er1  1  -0.00000003  0.00000012  0.50000006  1
  As  As2  1  0.00000002  -0.00000009  -0.00000001  1
  As  As3  1  0.50000003  0.49999999  0.49999994  1
