# generated using pymatgen
data_HoTlCl
_symmetry_space_group_name_H-M   'P 1'
_cell_length_a   6.93954121
_cell_length_b   6.93876679
_cell_length_c   3.55327447
_cell_angle_alpha   90.29723385
_cell_angle_beta   89.73172259
_cell_angle_gamma   53.43793806
_symmetry_Int_Tables_number   1
_chemical_formula_structural   HoTlCl
_chemical_formula_sum   'Ho1 Tl1 Cl1'
_cell_volume   137.41870802
_cell_formula_units_Z   1
loop_
 _symmetry_equiv_pos_site_id
 _symmetry_equiv_pos_as_xyz
  1  'x, y, z'
loop_
 _atom_site_type_symbol
 _atom_site_label
 _atom_site_symmetry_multiplicity
 _atom_site_fract_x
 _atom_site_fract_y
 _atom_site_fract_z
 _atom_site_occupancy
  Ho  Ho0  1  0.02982002  0.02982761  0.00001829  1
  Tl  Tl1  1  0.47722540  0.47721759  -0.00000827  1
  Cl  Cl2  1  0.22765458  0.22765480  -0.00001001  1
