# generated using pymatgen
data_InSI
_symmetry_space_group_name_H-M   'P 1'
_cell_length_a   4.38251185
_cell_length_b   4.38251522
_cell_length_c   5.34006147
_cell_angle_alpha   89.99983892
_cell_angle_beta   89.99992015
_cell_angle_gamma   120.00002156
_symmetry_Int_Tables_number   1
_chemical_formula_structural   InSI
_chemical_formula_sum   'In1 S1 I1'
_cell_volume   88.82256815
_cell_formula_units_Z   1
loop_
 _symmetry_equiv_pos_site_id
 _symmetry_equiv_pos_as_xyz
  1  'x, y, z'
loop_
 _atom_site_type_symbol
 _atom_site_label
 _atom_site_symmetry_multiplicity
 _atom_site_fract_x
 _atom_site_fract_y
 _atom_site_fract_z
 _atom_site_occupancy
  In  In0  1  0.00000070  0.00000018  -0.00000008  1
  S  S1  1  0.33333280  0.66666647  0.00000007  1
  I  I2  1  0.66666650  0.33333335  0.50000000  1
