# generated using pymatgen
data_KErCl
_symmetry_space_group_name_H-M   'P 1'
_cell_length_a   3.71340224
_cell_length_b   3.57518895
_cell_length_c   7.99659395
_cell_angle_alpha   89.99984787
_cell_angle_beta   90.00030204
_cell_angle_gamma   89.97312014
_symmetry_Int_Tables_number   1
_chemical_formula_structural   KErCl
_chemical_formula_sum   'K1 Er1 Cl1'
_cell_volume   106.16368647
_cell_formula_units_Z   1
loop_
 _symmetry_equiv_pos_site_id
 _symmetry_equiv_pos_as_xyz
  1  'x, y, z'
loop_
 _atom_site_type_symbol
 _atom_site_label
 _atom_site_symmetry_multiplicity
 _atom_site_fract_x
 _atom_site_fract_y
 _atom_site_fract_z
 _atom_site_occupancy
  K  K0  1  0.49999624  0.50000356  0.54881272  1
  Er  Er1  1  0.00000518  -0.00000071  -0.04015725  1
  Cl  Cl2  1  -0.00000142  0.49999715  0.22064453  1
