# generated using pymatgen
data_KInCl
_symmetry_space_group_name_H-M   'P 1'
_cell_length_a   4.58723693
_cell_length_b   6.32382914
_cell_length_c   3.85674879
_cell_angle_alpha   89.99969659
_cell_angle_beta   89.98520323
_cell_angle_gamma   90.00497407
_symmetry_Int_Tables_number   1
_chemical_formula_structural   KInCl
_chemical_formula_sum   'K1 In1 Cl1'
_cell_volume   111.88004581
_cell_formula_units_Z   1
loop_
 _symmetry_equiv_pos_site_id
 _symmetry_equiv_pos_as_xyz
  1  'x, y, z'
loop_
 _atom_site_type_symbol
 _atom_site_label
 _atom_site_symmetry_multiplicity
 _atom_site_fract_x
 _atom_site_fract_y
 _atom_site_fract_z
 _atom_site_occupancy
  K  K0  1  0.49999791  0.49999855  0.58715700  1
  In  In1  1  0.00000154  -0.00000795  0.05992470  1
  Cl  Cl2  1  0.00000055  0.50000941  0.08621830  1
