# generated using pymatgen
data_KLaO
_symmetry_space_group_name_H-M   'P 1'
_cell_length_a   4.00833150
_cell_length_b   4.00833125
_cell_length_c   6.74163552
_cell_angle_alpha   89.99999735
_cell_angle_beta   89.99999604
_cell_angle_gamma   120.00001521
_symmetry_Int_Tables_number   1
_chemical_formula_structural   KLaO
_chemical_formula_sum   'K1 La1 O1'
_cell_volume   93.80436997
_cell_formula_units_Z   1
loop_
 _symmetry_equiv_pos_site_id
 _symmetry_equiv_pos_as_xyz
  1  'x, y, z'
loop_
 _atom_site_type_symbol
 _atom_site_label
 _atom_site_symmetry_multiplicity
 _atom_site_fract_x
 _atom_site_fract_y
 _atom_site_fract_z
 _atom_site_occupancy
  K  K0  1  -0.00000000  0.00000002  0.49999999  1
  La  La1  1  0.00000004  -0.00000005  0.00000003  1
  O  O2  1  0.33333329  0.66666669  -0.00000002  1
