# generated using pymatgen
data_KLiI2
_symmetry_space_group_name_H-M   'P 1'
_cell_length_a   4.77290110
_cell_length_b   4.77290089
_cell_length_c   6.74624829
_cell_angle_alpha   89.99999683
_cell_angle_beta   90.00000140
_cell_angle_gamma   90.00000036
_symmetry_Int_Tables_number   1
_chemical_formula_structural   KLiI2
_chemical_formula_sum   'K1 Li1 I2'
_cell_volume   153.68347524
_cell_formula_units_Z   1
loop_
 _symmetry_equiv_pos_site_id
 _symmetry_equiv_pos_as_xyz
  1  'x, y, z'
loop_
 _atom_site_type_symbol
 _atom_site_label
 _atom_site_symmetry_multiplicity
 _atom_site_fract_x
 _atom_site_fract_y
 _atom_site_fract_z
 _atom_site_occupancy
  K  K0  1  0.00000000  -0.00000000  0.50000000  1
  Li  Li1  1  0.50000000  0.50000000  0.00000000  1
  I  I2  1  0.00000000  0.00000001  0.00000000  1
  I  I3  1  0.50000000  0.50000000  0.50000000  1
