# generated using pymatgen
data_KNbCl2
_symmetry_space_group_name_H-M   'P 1'
_cell_length_a   4.25014785
_cell_length_b   3.17896192
_cell_length_c   7.34880961
_cell_angle_alpha   90.00122556
_cell_angle_beta   90.00036717
_cell_angle_gamma   90.00000048
_symmetry_Int_Tables_number   1
_chemical_formula_structural   KNbCl2
_chemical_formula_sum   'K1 Nb1 Cl2'
_cell_volume   99.29019411
_cell_formula_units_Z   1
loop_
 _symmetry_equiv_pos_site_id
 _symmetry_equiv_pos_as_xyz
  1  'x, y, z'
loop_
 _atom_site_type_symbol
 _atom_site_label
 _atom_site_symmetry_multiplicity
 _atom_site_fract_x
 _atom_site_fract_y
 _atom_site_fract_z
 _atom_site_occupancy
  K  K0  1  0.49999478  0.49999507  -0.06775408  1
  Nb  Nb1  1  0.00000378  0.00000353  0.49585955  1
  Cl  Cl2  1  -0.00000193  -0.00000186  0.14992858  1
  Cl  Cl3  1  0.50000337  0.50000326  0.44866596  1
