# generated using pymatgen
data_KNdI
_symmetry_space_group_name_H-M   'P 1'
_cell_length_a   4.78783378
_cell_length_b   6.27779249
_cell_length_c   4.61171610
_cell_angle_alpha   90.00965041
_cell_angle_beta   89.99882958
_cell_angle_gamma   89.99839522
_symmetry_Int_Tables_number   1
_chemical_formula_structural   KNdI
_chemical_formula_sum   'K1 Nd1 I1'
_cell_volume   138.61447282
_cell_formula_units_Z   1
loop_
 _symmetry_equiv_pos_site_id
 _symmetry_equiv_pos_as_xyz
  1  'x, y, z'
loop_
 _atom_site_type_symbol
 _atom_site_label
 _atom_site_symmetry_multiplicity
 _atom_site_fract_x
 _atom_site_fract_y
 _atom_site_fract_z
 _atom_site_occupancy
  K  K0  1  0.50000012  0.50031361  -0.07405790  1
  Nd  Nd1  1  -0.00000108  -0.00012871  0.42203911  1
  I  I2  1  0.00000095  0.49981510  0.42531879  1
