# generated using pymatgen
data_KSrP
_symmetry_space_group_name_H-M   'P 1'
_cell_length_a   4.87203009
_cell_length_b   4.87202912
_cell_length_c   6.03394929
_cell_angle_alpha   90.00000446
_cell_angle_beta   89.99999709
_cell_angle_gamma   120.00000674
_symmetry_Int_Tables_number   1
_chemical_formula_structural   KSrP
_chemical_formula_sum   'K1 Sr1 P1'
_cell_volume   124.03724028
_cell_formula_units_Z   1
loop_
 _symmetry_equiv_pos_site_id
 _symmetry_equiv_pos_as_xyz
  1  'x, y, z'
loop_
 _atom_site_type_symbol
 _atom_site_label
 _atom_site_symmetry_multiplicity
 _atom_site_fract_x
 _atom_site_fract_y
 _atom_site_fract_z
 _atom_site_occupancy
  K  K0  1  -0.00000000  -0.00000003  0.08773440  1
  Sr  Sr1  1  0.33333330  0.66666663  0.53191661  1
  P  P2  1  0.66666670  0.33333340  0.38034899  1
