# generated using pymatgen
data_KTiI
_symmetry_space_group_name_H-M   'P 1'
_cell_length_a   5.47674107
_cell_length_b   4.89373159
_cell_length_c   4.90236573
_cell_angle_alpha   90.00146651
_cell_angle_beta   89.99809380
_cell_angle_gamma   89.99750866
_symmetry_Int_Tables_number   1
_chemical_formula_structural   KTiI
_chemical_formula_sum   'K1 Ti1 I1'
_cell_volume   131.39173931
_cell_formula_units_Z   1
loop_
 _symmetry_equiv_pos_site_id
 _symmetry_equiv_pos_as_xyz
  1  'x, y, z'
loop_
 _atom_site_type_symbol
 _atom_site_label
 _atom_site_symmetry_multiplicity
 _atom_site_fract_x
 _atom_site_fract_y
 _atom_site_fract_z
 _atom_site_occupancy
  K  K0  1  0.00000211  0.00015677  -0.00011922  1
  Ti  Ti1  1  0.49999902  0.49975084  0.50018497  1
  I  I2  1  -0.00000113  0.50009240  0.49993424  1
