# generated using pymatgen
data_LaBrF
_symmetry_space_group_name_H-M   'P 1'
_cell_length_a   4.32588206
_cell_length_b   4.32548219
_cell_length_c   4.11646575
_cell_angle_alpha   90.01376497
_cell_angle_beta   89.98289726
_cell_angle_gamma   120.00508482
_symmetry_Int_Tables_number   1
_chemical_formula_structural   LaBrF
_chemical_formula_sum   'La1 Br1 F1'
_cell_volume   66.70249279
_cell_formula_units_Z   1
loop_
 _symmetry_equiv_pos_site_id
 _symmetry_equiv_pos_as_xyz
  1  'x, y, z'
loop_
 _atom_site_type_symbol
 _atom_site_label
 _atom_site_symmetry_multiplicity
 _atom_site_fract_x
 _atom_site_fract_y
 _atom_site_fract_z
 _atom_site_occupancy
  La  La0  1  0.33332629  0.66666114  0.07016258  1
  Br  Br1  1  0.00000558  0.00000887  0.57163740  1
  F  F2  1  0.66666813  0.33332999  0.07150002  1
