# generated using pymatgen
data_LaClO
_symmetry_space_group_name_H-M   'P 1'
_cell_length_a   3.97332460
_cell_length_b   3.97330927
_cell_length_c   4.66840618
_cell_angle_alpha   89.99991597
_cell_angle_beta   90.00019022
_cell_angle_gamma   120.00011863
_symmetry_Int_Tables_number   1
_chemical_formula_structural   LaClO
_chemical_formula_sum   'La1 Cl1 O1'
_cell_volume   63.82710768
_cell_formula_units_Z   1
loop_
 _symmetry_equiv_pos_site_id
 _symmetry_equiv_pos_as_xyz
  1  'x, y, z'
loop_
 _atom_site_type_symbol
 _atom_site_label
 _atom_site_symmetry_multiplicity
 _atom_site_fract_x
 _atom_site_fract_y
 _atom_site_fract_z
 _atom_site_occupancy
  La  La0  1  -0.00000041  0.00000195  -0.00000107  1
  Cl  Cl1  1  0.33333274  0.66666464  0.50000063  1
  O  O2  1  0.66666767  0.33333340  0.00000044  1
