# generated using pymatgen
data_LaErSb2
_symmetry_space_group_name_H-M   'P 1'
_cell_length_a   4.50183111
_cell_length_b   4.50183494
_cell_length_c   6.35505496
_cell_angle_alpha   89.99999558
_cell_angle_beta   89.99997054
_cell_angle_gamma   89.99992415
_symmetry_Int_Tables_number   1
_chemical_formula_structural   LaErSb2
_chemical_formula_sum   'La1 Er1 Sb2'
_cell_volume   128.79472506
_cell_formula_units_Z   1
loop_
 _symmetry_equiv_pos_site_id
 _symmetry_equiv_pos_as_xyz
  1  'x, y, z'
loop_
 _atom_site_type_symbol
 _atom_site_label
 _atom_site_symmetry_multiplicity
 _atom_site_fract_x
 _atom_site_fract_y
 _atom_site_fract_z
 _atom_site_occupancy
  La  La0  1  0.50000027  0.49999920  -0.00000039  1
  Er  Er1  1  -0.00000032  0.00000212  0.49999869  1
  Sb  Sb2  1  -0.00000002  -0.00000048  0.00000097  1
  Sb  Sb3  1  0.50000008  0.49999916  0.50000073  1
