# generated using pymatgen
data_LaErAs2
_symmetry_space_group_name_H-M   'P 1'
_cell_length_a   4.24198918
_cell_length_b   4.24199420
_cell_length_c   5.98674581
_cell_angle_alpha   89.99992005
_cell_angle_beta   90.00013005
_cell_angle_gamma   89.99994138
_symmetry_Int_Tables_number   1
_chemical_formula_structural   LaErAs2
_chemical_formula_sum   'La1 Er1 As2'
_cell_volume   107.72845855
_cell_formula_units_Z   1
loop_
 _symmetry_equiv_pos_site_id
 _symmetry_equiv_pos_as_xyz
  1  'x, y, z'
loop_
 _atom_site_type_symbol
 _atom_site_label
 _atom_site_symmetry_multiplicity
 _atom_site_fract_x
 _atom_site_fract_y
 _atom_site_fract_z
 _atom_site_occupancy
  La  La0  1  0.50000002  0.49999982  0.00000021  1
  Er  Er1  1  -0.00000039  -0.00000026  0.49999926  1
  As  As2  1  -0.00000021  0.00000011  0.00000027  1
  As  As3  1  0.50000058  0.50000033  0.50000025  1
