# generated using pymatgen
data_LaMnN
_symmetry_space_group_name_H-M   'P 1'
_cell_length_a   3.10787319
_cell_length_b   3.10790283
_cell_length_c   5.85469672
_cell_angle_alpha   89.98931052
_cell_angle_beta   90.00464709
_cell_angle_gamma   119.99907762
_symmetry_Int_Tables_number   1
_chemical_formula_structural   LaMnN
_chemical_formula_sum   'La1 Mn1 N1'
_cell_volume   48.97447461
_cell_formula_units_Z   1
loop_
 _symmetry_equiv_pos_site_id
 _symmetry_equiv_pos_as_xyz
  1  'x, y, z'
loop_
 _atom_site_type_symbol
 _atom_site_label
 _atom_site_symmetry_multiplicity
 _atom_site_fract_x
 _atom_site_fract_y
 _atom_site_fract_z
 _atom_site_occupancy
  La  La0  1  0.00000144  0.00002418  -0.01187995  1
  Mn  Mn1  1  -0.00000229  -0.00002919  0.47300123  1
  N  N2  1  0.33333418  0.66667168  0.34217872  1
