# generated using pymatgen
data_LaMoAs2
_symmetry_space_group_name_H-M   'P 1'
_cell_length_a   3.74811234
_cell_length_b   4.81679817
_cell_length_c   5.54038679
_cell_angle_alpha   90.00001228
_cell_angle_beta   109.76221297
_cell_angle_gamma   89.99999392
_symmetry_Int_Tables_number   1
_chemical_formula_structural   LaMoAs2
_chemical_formula_sum   'La1 Mo1 As2'
_cell_volume   94.13448181
_cell_formula_units_Z   1
loop_
 _symmetry_equiv_pos_site_id
 _symmetry_equiv_pos_as_xyz
  1  'x, y, z'
loop_
 _atom_site_type_symbol
 _atom_site_label
 _atom_site_symmetry_multiplicity
 _atom_site_fract_x
 _atom_site_fract_y
 _atom_site_fract_z
 _atom_site_occupancy
  La  La0  1  0.03083051  -0.00000001  0.43652096  1
  Mo  Mo1  1  0.77314152  0.50000004  0.92077644  1
  As  As2  1  0.44480965  0.50000000  0.26425630  1
  As  As3  1  0.75121832  -0.00000003  0.87844630  1
