# generated using pymatgen
data_LaNbAs
_symmetry_space_group_name_H-M   'P 1'
_cell_length_a   3.52954588
_cell_length_b   3.53026978
_cell_length_c   5.75423574
_cell_angle_alpha   90.01435149
_cell_angle_beta   89.98778779
_cell_angle_gamma   90.00036547
_symmetry_Int_Tables_number   1
_chemical_formula_structural   LaNbAs
_chemical_formula_sum   'La1 Nb1 As1'
_cell_volume   71.69920706
_cell_formula_units_Z   1
loop_
 _symmetry_equiv_pos_site_id
 _symmetry_equiv_pos_as_xyz
  1  'x, y, z'
loop_
 _atom_site_type_symbol
 _atom_site_label
 _atom_site_symmetry_multiplicity
 _atom_site_fract_x
 _atom_site_fract_y
 _atom_site_fract_z
 _atom_site_occupancy
  La  La0  1  0.50003996  0.49995435  -0.02918428  1
  Nb  Nb1  1  0.49995522  0.50004637  0.50052984  1
  As  As2  1  0.00000482  -0.00000071  0.32295444  1
