# generated using pymatgen
data_LaVAs2
_symmetry_space_group_name_H-M   'P 1'
_cell_length_a   3.99266971
_cell_length_b   4.90180314
_cell_length_c   4.89406597
_cell_angle_alpha   90.00005863
_cell_angle_beta   90.06108384
_cell_angle_gamma   90.00010680
_symmetry_Int_Tables_number   1
_chemical_formula_structural   LaVAs2
_chemical_formula_sum   'La1 V1 As2'
_cell_volume   95.78308546
_cell_formula_units_Z   1
loop_
 _symmetry_equiv_pos_site_id
 _symmetry_equiv_pos_as_xyz
  1  'x, y, z'
loop_
 _atom_site_type_symbol
 _atom_site_label
 _atom_site_symmetry_multiplicity
 _atom_site_fract_x
 _atom_site_fract_y
 _atom_site_fract_z
 _atom_site_occupancy
  La  La0  1  0.50005552  -0.00000018  0.62293906  1
  V  V1  1  -0.00080896  0.50000004  0.12820382  1
  As  As2  1  0.00097673  0.00000033  0.12204080  1
  As  As3  1  0.99977672  0.49999982  0.62671632  1
