# generated using pymatgen
data_Li2IF
_symmetry_space_group_name_H-M   'P 1'
_cell_length_a   4.01332812
_cell_length_b   4.01332971
_cell_length_c   6.06060071
_cell_angle_alpha   90.00054304
_cell_angle_beta   89.99944134
_cell_angle_gamma   120.00470878
_symmetry_Int_Tables_number   1
_chemical_formula_structural   Li2IF
_chemical_formula_sum   'Li2 I1 F1'
_cell_volume   84.53473663
_cell_formula_units_Z   1
loop_
 _symmetry_equiv_pos_site_id
 _symmetry_equiv_pos_as_xyz
  1  'x, y, z'
loop_
 _atom_site_type_symbol
 _atom_site_label
 _atom_site_symmetry_multiplicity
 _atom_site_fract_x
 _atom_site_fract_y
 _atom_site_fract_z
 _atom_site_occupancy
  Li  Li0  1  0.00000441  -0.00000430  0.28769861  1
  Li  Li1  1  0.33336489  0.66663596  0.62653669  1
  I  I2  1  0.33332507  0.66667494  0.08628874  1
  F  F3  1  -0.00002770  0.00002674  0.57937596  1
