# generated using pymatgen
data_LiCuCl2
_symmetry_space_group_name_H-M   'P 1'
_cell_length_a   3.99526510
_cell_length_b   5.72429634
_cell_length_c   3.99224648
_cell_angle_alpha   89.99989978
_cell_angle_beta   118.98466218
_cell_angle_gamma   89.99987349
_symmetry_Int_Tables_number   1
_chemical_formula_structural   LiCuCl2
_chemical_formula_sum   'Li1 Cu1 Cl2'
_cell_volume   79.86725137
_cell_formula_units_Z   1
loop_
 _symmetry_equiv_pos_site_id
 _symmetry_equiv_pos_as_xyz
  1  'x, y, z'
loop_
 _atom_site_type_symbol
 _atom_site_label
 _atom_site_symmetry_multiplicity
 _atom_site_fract_x
 _atom_site_fract_y
 _atom_site_fract_z
 _atom_site_occupancy
  Li  Li0  1  0.78901039  0.50002264  0.20907705  1
  Cu  Cu1  1  0.46117298  0.00003778  0.54157389  1
  Cl  Cl2  1  0.45118420  0.49996810  0.54444248  1
  Cl  Cl3  1  0.79853244  -0.00002851  0.20490658  1
