# generated using pymatgen
data_LiDyBr2
_symmetry_space_group_name_H-M   'P 1'
_cell_length_a   4.01200810
_cell_length_b   3.71761729
_cell_length_c   6.87468950
_cell_angle_alpha   89.99362470
_cell_angle_beta   106.62615909
_cell_angle_gamma   89.99871970
_symmetry_Int_Tables_number   1
_chemical_formula_structural   LiDyBr2
_chemical_formula_sum   'Li1 Dy1 Br2'
_cell_volume   98.24990152
_cell_formula_units_Z   1
loop_
 _symmetry_equiv_pos_site_id
 _symmetry_equiv_pos_as_xyz
  1  'x, y, z'
loop_
 _atom_site_type_symbol
 _atom_site_label
 _atom_site_symmetry_multiplicity
 _atom_site_fract_x
 _atom_site_fract_y
 _atom_site_fract_z
 _atom_site_occupancy
  Li  Li0  1  0.49741889  0.50004063  0.09804086  1
  Dy  Dy1  1  0.69951969  0.00000509  0.49125581  1
  Br  Br2  1  0.29404699  0.49993740  0.68557941  1
  Br  Br3  1  0.04101444  0.00001687  0.16682393  1
