# generated using pymatgen
data_LiGaSe2
_symmetry_space_group_name_H-M   'P 1'
_cell_length_a   3.99214361
_cell_length_b   3.80340368
_cell_length_c   6.42285367
_cell_angle_alpha   89.99980069
_cell_angle_beta   97.05372899
_cell_angle_gamma   89.99988272
_symmetry_Int_Tables_number   1
_chemical_formula_structural   LiGaSe2
_chemical_formula_sum   'Li1 Ga1 Se2'
_cell_volume   96.78479113
_cell_formula_units_Z   1
loop_
 _symmetry_equiv_pos_site_id
 _symmetry_equiv_pos_as_xyz
  1  'x, y, z'
loop_
 _atom_site_type_symbol
 _atom_site_label
 _atom_site_symmetry_multiplicity
 _atom_site_fract_x
 _atom_site_fract_y
 _atom_site_fract_z
 _atom_site_occupancy
  Li  Li0  1  0.42258392  0.49999970  0.86715219  1
  Ga  Ga1  1  0.19939061  -0.00000100  0.26098967  1
  Se  Se2  1  0.44476934  0.50000168  0.44861305  1
  Se  Se3  1  0.93335613  -0.00000038  0.92324509  1
