# generated using pymatgen
data_LiGeAs
_symmetry_space_group_name_H-M   'P 1'
_cell_length_a   4.76175193
_cell_length_b   4.76175521
_cell_length_c   2.78779686
_cell_angle_alpha   90.00007824
_cell_angle_beta   89.99994439
_cell_angle_gamma   120.00029972
_symmetry_Int_Tables_number   1
_chemical_formula_structural   LiGeAs
_chemical_formula_sum   'Li1 Ge1 As1'
_cell_volume   54.74245580
_cell_formula_units_Z   1
loop_
 _symmetry_equiv_pos_site_id
 _symmetry_equiv_pos_as_xyz
  1  'x, y, z'
loop_
 _atom_site_type_symbol
 _atom_site_label
 _atom_site_symmetry_multiplicity
 _atom_site_fract_x
 _atom_site_fract_y
 _atom_site_fract_z
 _atom_site_occupancy
  Li  Li0  1  0.33333329  0.66666661  0.50000002  1
  Ge  Ge1  1  0.66666632  0.33333374  -0.00000005  1
  As  As2  1  0.00000040  -0.00000035  0.00000003  1
