# generated using pymatgen
data_LiHS
_symmetry_space_group_name_H-M   'P 1'
_cell_length_a   3.61279471
_cell_length_b   3.61279526
_cell_length_c   2.84033649
_cell_angle_alpha   90.00000700
_cell_angle_beta   89.99996289
_cell_angle_gamma   120.00008889
_symmetry_Int_Tables_number   1
_chemical_formula_structural   LiHS
_chemical_formula_sum   'Li1 H1 S1'
_cell_volume   32.10603468
_cell_formula_units_Z   1
loop_
 _symmetry_equiv_pos_site_id
 _symmetry_equiv_pos_as_xyz
  1  'x, y, z'
loop_
 _atom_site_type_symbol
 _atom_site_label
 _atom_site_symmetry_multiplicity
 _atom_site_fract_x
 _atom_site_fract_y
 _atom_site_fract_z
 _atom_site_occupancy
  Li  Li0  1  0.66666661  0.33333338  0.00000000  1
  H  H1  1  0.33333332  0.66666674  -0.00000005  1
  S  S2  1  0.00000006  -0.00000012  0.50000005  1
