# generated using pymatgen
data_LiScI2
_symmetry_space_group_name_H-M   'P 1'
_cell_length_a   5.57375158
_cell_length_b   3.87562833
_cell_length_c   8.13465225
_cell_angle_alpha   90.00000165
_cell_angle_beta   100.74717017
_cell_angle_gamma   89.99999467
_symmetry_Int_Tables_number   1
_chemical_formula_structural   LiScI2
_chemical_formula_sum   'Li1 Sc1 I2'
_cell_volume   172.64079495
_cell_formula_units_Z   1
loop_
 _symmetry_equiv_pos_site_id
 _symmetry_equiv_pos_as_xyz
  1  'x, y, z'
loop_
 _atom_site_type_symbol
 _atom_site_label
 _atom_site_symmetry_multiplicity
 _atom_site_fract_x
 _atom_site_fract_y
 _atom_site_fract_z
 _atom_site_occupancy
  Li  Li0  1  0.00676006  0.50000005  0.03577178  1
  Sc  Sc1  1  0.52270729  -0.00000010  -0.01871724  1
  I  I2  1  0.25487857  0.00000009  0.24026179  1
  I  I3  1  0.23265408  0.49999996  0.75538366  1
