# generated using pymatgen
data_LiTlSe
_symmetry_space_group_name_H-M   'P 1'
_cell_length_a   4.34534991
_cell_length_b   4.34534951
_cell_length_c   4.71335956
_cell_angle_alpha   89.99999606
_cell_angle_beta   89.99999975
_cell_angle_gamma   120.00018742
_symmetry_Int_Tables_number   1
_chemical_formula_structural   LiTlSe
_chemical_formula_sum   'Li1 Tl1 Se1'
_cell_volume   77.07434635
_cell_formula_units_Z   1
loop_
 _symmetry_equiv_pos_site_id
 _symmetry_equiv_pos_as_xyz
  1  'x, y, z'
loop_
 _atom_site_type_symbol
 _atom_site_label
 _atom_site_symmetry_multiplicity
 _atom_site_fract_x
 _atom_site_fract_y
 _atom_site_fract_z
 _atom_site_occupancy
  Li  Li0  1  -0.00000017  0.00000021  0.00000000  1
  Tl  Tl1  1  0.33333332  0.66666669  0.50000001  1
  Se  Se2  1  0.66666685  0.33333310  -0.00000001  1
