# generated using pymatgen
data_LiTmTe
_symmetry_space_group_name_H-M   'P 1'
_cell_length_a   3.94619635
_cell_length_b   3.94619173
_cell_length_c   6.98328835
_cell_angle_alpha   90.00015390
_cell_angle_beta   89.99964722
_cell_angle_gamma   120.00006181
_symmetry_Int_Tables_number   1
_chemical_formula_structural   LiTmTe
_chemical_formula_sum   'Li1 Tm1 Te1'
_cell_volume   94.17751117
_cell_formula_units_Z   1
loop_
 _symmetry_equiv_pos_site_id
 _symmetry_equiv_pos_as_xyz
  1  'x, y, z'
loop_
 _atom_site_type_symbol
 _atom_site_label
 _atom_site_symmetry_multiplicity
 _atom_site_fract_x
 _atom_site_fract_y
 _atom_site_fract_z
 _atom_site_occupancy
  Li  Li0  1  -0.00000019  -0.00000012  0.49512804  1
  Tm  Tm1  1  0.00000081  -0.00000011  -0.01188724  1
  Te  Te2  1  0.33333272  0.66666689  0.27065920  1
