# generated using pymatgen
data_LiTmF
_symmetry_space_group_name_H-M   'P 1'
_cell_length_a   3.70182457
_cell_length_b   3.30566742
_cell_length_c   4.93401551
_cell_angle_alpha   89.99893355
_cell_angle_beta   89.99650785
_cell_angle_gamma   90.00014230
_symmetry_Int_Tables_number   1
_chemical_formula_structural   LiTmF
_chemical_formula_sum   'Li1 Tm1 F1'
_cell_volume   60.37755205
_cell_formula_units_Z   1
loop_
 _symmetry_equiv_pos_site_id
 _symmetry_equiv_pos_as_xyz
  1  'x, y, z'
loop_
 _atom_site_type_symbol
 _atom_site_label
 _atom_site_symmetry_multiplicity
 _atom_site_fract_x
 _atom_site_fract_y
 _atom_site_fract_z
 _atom_site_occupancy
  Li  Li0  1  0.00000193  -0.00000002  -0.00363065  1
  Tm  Tm1  1  0.49997696  0.50000024  0.48863415  1
  F  F2  1  0.00002111  0.49999978  0.24529650  1
