# generated using pymatgen
data_Lu2AsN
_symmetry_space_group_name_H-M   'P 1'
_cell_length_a   3.74095429
_cell_length_b   3.74095489
_cell_length_c   5.32240333
_cell_angle_alpha   90.00000000
_cell_angle_beta   90.00001222
_cell_angle_gamma   90.00000061
_symmetry_Int_Tables_number   1
_chemical_formula_structural   Lu2AsN
_chemical_formula_sum   'Lu2 As1 N1'
_cell_volume   74.48565740
_cell_formula_units_Z   1
loop_
 _symmetry_equiv_pos_site_id
 _symmetry_equiv_pos_as_xyz
  1  'x, y, z'
loop_
 _atom_site_type_symbol
 _atom_site_label
 _atom_site_symmetry_multiplicity
 _atom_site_fract_x
 _atom_site_fract_y
 _atom_site_fract_z
 _atom_site_occupancy
  Lu  Lu0  1  -0.00000004  -0.00000002  -0.00000001  1
  Lu  Lu1  1  0.49999992  0.50000002  0.50000000  1
  As  As2  1  0.00000003  -0.00000003  0.49999994  1
  N  N3  1  0.50000009  0.50000003  0.00000007  1
