# generated using pymatgen
data_LuAuI2
_symmetry_space_group_name_H-M   'P 1'
_cell_length_a   5.58682507
_cell_length_b   4.00647399
_cell_length_c   8.43535211
_cell_angle_alpha   90.00007334
_cell_angle_beta   99.32469345
_cell_angle_gamma   89.99911930
_symmetry_Int_Tables_number   1
_chemical_formula_structural   LuAuI2
_chemical_formula_sum   'Lu1 Au1 I2'
_cell_volume   186.31747318
_cell_formula_units_Z   1
loop_
 _symmetry_equiv_pos_site_id
 _symmetry_equiv_pos_as_xyz
  1  'x, y, z'
loop_
 _atom_site_type_symbol
 _atom_site_label
 _atom_site_symmetry_multiplicity
 _atom_site_fract_x
 _atom_site_fract_y
 _atom_site_fract_z
 _atom_site_occupancy
  Lu  Lu0  1  0.55544897  0.00000230  -0.02942929  1
  Au  Au1  1  -0.10379006  0.49999949  0.05828639  1
  I  I2  1  0.28773503  0.00000310  0.23242322  1
  I  I3  1  0.28460606  0.49999511  0.74041968  1
