# generated using pymatgen
data_LuClF
_symmetry_space_group_name_H-M   'P 1'
_cell_length_a   3.76206219
_cell_length_b   3.11985894
_cell_length_c   4.45074694
_cell_angle_alpha   90.00034726
_cell_angle_beta   90.00016856
_cell_angle_gamma   89.99431806
_symmetry_Int_Tables_number   1
_chemical_formula_structural   LuClF
_chemical_formula_sum   'Lu1 Cl1 F1'
_cell_volume   52.23887672
_cell_formula_units_Z   1
loop_
 _symmetry_equiv_pos_site_id
 _symmetry_equiv_pos_as_xyz
  1  'x, y, z'
loop_
 _atom_site_type_symbol
 _atom_site_label
 _atom_site_symmetry_multiplicity
 _atom_site_fract_x
 _atom_site_fract_y
 _atom_site_fract_z
 _atom_site_occupancy
  Lu  Lu0  1  0.00000038  -0.00000054  -0.00000003  1
  Cl  Cl1  1  -0.00000030  0.50000120  0.50000006  1
  F  F2  1  0.49999992  0.49999934  -0.00000003  1
