# generated using pymatgen
data_LuHCl
_symmetry_space_group_name_H-M   'P 1'
_cell_length_a   3.16618618
_cell_length_b   3.46784391
_cell_length_c   4.57065922
_cell_angle_alpha   89.99793322
_cell_angle_beta   90.00193331
_cell_angle_gamma   90.00621890
_symmetry_Int_Tables_number   1
_chemical_formula_structural   LuHCl
_chemical_formula_sum   'Lu1 H1 Cl1'
_cell_volume   50.18510410
_cell_formula_units_Z   1
loop_
 _symmetry_equiv_pos_site_id
 _symmetry_equiv_pos_as_xyz
  1  'x, y, z'
loop_
 _atom_site_type_symbol
 _atom_site_label
 _atom_site_symmetry_multiplicity
 _atom_site_fract_x
 _atom_site_fract_y
 _atom_site_fract_z
 _atom_site_occupancy
  Lu  Lu0  1  0.50000800  0.49999920  -0.25043795  1
  H  H1  1  0.00006986  -0.00001007  0.74603279  1
  Cl  Cl2  1  -0.00007785  0.50001087  0.24770516  1
