# generated using pymatgen
data_LuTlI
_symmetry_space_group_name_H-M   'P 1'
_cell_length_a   7.04497056
_cell_length_b   7.03758554
_cell_length_c   3.78711235
_cell_angle_alpha   74.52607586
_cell_angle_beta   105.83407938
_cell_angle_gamma   52.00899684
_symmetry_Int_Tables_number   1
_chemical_formula_structural   LuTlI
_chemical_formula_sum   'Lu1 Tl1 I1'
_cell_volume   116.63482266
_cell_formula_units_Z   1
loop_
 _symmetry_equiv_pos_site_id
 _symmetry_equiv_pos_as_xyz
  1  'x, y, z'
loop_
 _atom_site_type_symbol
 _atom_site_label
 _atom_site_symmetry_multiplicity
 _atom_site_fract_x
 _atom_site_fract_y
 _atom_site_fract_z
 _atom_site_occupancy
  Lu  Lu0  1  0.03886448  0.03826864  -0.00077140  1
  Tl  Tl1  1  0.48095170  0.47982393  0.00015768  1
  I  I2  1  0.22488382  0.22660743  0.50061372  1
