# generated using pymatgen
data_MgBrCl
_symmetry_space_group_name_H-M   'P 1'
_cell_length_a   3.82697899
_cell_length_b   3.82697770
_cell_length_c   5.65455127
_cell_angle_alpha   90.00012543
_cell_angle_beta   89.99991508
_cell_angle_gamma   120.00038958
_symmetry_Int_Tables_number   1
_chemical_formula_structural   MgBrCl
_chemical_formula_sum   'Mg1 Br1 Cl1'
_cell_volume   71.71980216
_cell_formula_units_Z   1
loop_
 _symmetry_equiv_pos_site_id
 _symmetry_equiv_pos_as_xyz
  1  'x, y, z'
loop_
 _atom_site_type_symbol
 _atom_site_label
 _atom_site_symmetry_multiplicity
 _atom_site_fract_x
 _atom_site_fract_y
 _atom_site_fract_z
 _atom_site_occupancy
  Mg  Mg0  1  0.33333350  0.66666664  0.65342596  1
  Br  Br1  1  0.00000024  0.00000030  0.91815611  1
  Cl  Cl2  1  0.66666626  0.33333306  0.42841793  1
