# generated using pymatgen
data_MgCuBr2
_symmetry_space_group_name_H-M   'P 1'
_cell_length_a   4.89670169
_cell_length_b   3.59302112
_cell_length_c   7.22370956
_cell_angle_alpha   89.99997605
_cell_angle_beta   89.57018113
_cell_angle_gamma   89.99999602
_symmetry_Int_Tables_number   1
_chemical_formula_structural   MgCuBr2
_chemical_formula_sum   'Mg1 Cu1 Br2'
_cell_volume   127.09002724
_cell_formula_units_Z   1
loop_
 _symmetry_equiv_pos_site_id
 _symmetry_equiv_pos_as_xyz
  1  'x, y, z'
loop_
 _atom_site_type_symbol
 _atom_site_label
 _atom_site_symmetry_multiplicity
 _atom_site_fract_x
 _atom_site_fract_y
 _atom_site_fract_z
 _atom_site_occupancy
  Mg  Mg0  1  0.53739679  0.00000009  -0.03887454  1
  Cu  Cu1  1  -0.03875818  0.49999989  0.04244833  1
  Br  Br2  1  0.18552864  -0.00000026  0.23572692  1
  Br  Br3  1  0.28153275  0.50000028  0.75739929  1
