# generated using pymatgen
data_MgFeCl2
_symmetry_space_group_name_H-M   'P 1'
_cell_length_a   5.24852650
_cell_length_b   3.25391350
_cell_length_c   6.47653711
_cell_angle_alpha   90.00052445
_cell_angle_beta   116.22928976
_cell_angle_gamma   90.00014869
_symmetry_Int_Tables_number   1
_chemical_formula_structural   MgFeCl2
_chemical_formula_sum   'Mg1 Fe1 Cl2'
_cell_volume   99.21891190
_cell_formula_units_Z   1
loop_
 _symmetry_equiv_pos_site_id
 _symmetry_equiv_pos_as_xyz
  1  'x, y, z'
loop_
 _atom_site_type_symbol
 _atom_site_label
 _atom_site_symmetry_multiplicity
 _atom_site_fract_x
 _atom_site_fract_y
 _atom_site_fract_z
 _atom_site_occupancy
  Mg  Mg0  1  0.51873480  0.50000021  -0.05478768  1
  Fe  Fe1  1  0.00407409  0.00000052  0.04269381  1
  Cl  Cl2  1  0.36485722  0.49999961  0.26514830  1
  Cl  Cl3  1  0.12633389  -0.00000033  0.72464558  1
