# generated using pymatgen
data_MgIBr
_symmetry_space_group_name_H-M   'P 1'
_cell_length_a   4.05569735
_cell_length_b   4.05569781
_cell_length_c   7.15218026
_cell_angle_alpha   90.00013940
_cell_angle_beta   89.99986786
_cell_angle_gamma   120.00054842
_symmetry_Int_Tables_number   1
_chemical_formula_structural   MgIBr
_chemical_formula_sum   'Mg1 I1 Br1'
_cell_volume   101.88208172
_cell_formula_units_Z   1
loop_
 _symmetry_equiv_pos_site_id
 _symmetry_equiv_pos_as_xyz
  1  'x, y, z'
loop_
 _atom_site_type_symbol
 _atom_site_label
 _atom_site_symmetry_multiplicity
 _atom_site_fract_x
 _atom_site_fract_y
 _atom_site_fract_z
 _atom_site_occupancy
  Mg  Mg0  1  0.33333279  0.66666696  0.67969420  1
  I  I1  1  0.66666650  0.33333350  0.43845836  1
  Br  Br2  1  0.00000071  -0.00000046  0.88184744  1
