# generated using pymatgen
data_MgNF
_symmetry_space_group_name_H-M   'P 1'
_cell_length_a   2.87625045
_cell_length_b   2.87180462
_cell_length_c   4.20552099
_cell_angle_alpha   89.99999927
_cell_angle_beta   90.00000241
_cell_angle_gamma   90.40225017
_symmetry_Int_Tables_number   1
_chemical_formula_structural   MgNF
_chemical_formula_sum   'Mg1 N1 F1'
_cell_volume   34.73687060
_cell_formula_units_Z   1
loop_
 _symmetry_equiv_pos_site_id
 _symmetry_equiv_pos_as_xyz
  1  'x, y, z'
loop_
 _atom_site_type_symbol
 _atom_site_label
 _atom_site_symmetry_multiplicity
 _atom_site_fract_x
 _atom_site_fract_y
 _atom_site_fract_z
 _atom_site_occupancy
  Mg  Mg0  1  0.44447825  0.61197909  0.50000000  1
  N  N1  1  0.44451149  0.61098967  -0.00000002  1
  F  F2  1  -0.05565641  0.11036457  0.50000003  1
