# generated using pymatgen
data_MgP2Ir
_symmetry_space_group_name_H-M   'P 1'
_cell_length_a   4.48581087
_cell_length_b   4.45048524
_cell_length_c   4.47724904
_cell_angle_alpha   89.99992705
_cell_angle_beta   127.70441041
_cell_angle_gamma   90.00007255
_symmetry_Int_Tables_number   1
_chemical_formula_structural   MgP2Ir
_chemical_formula_sum   'Mg1 P2 Ir1'
_cell_volume   70.71848233
_cell_formula_units_Z   1
loop_
 _symmetry_equiv_pos_site_id
 _symmetry_equiv_pos_as_xyz
  1  'x, y, z'
loop_
 _atom_site_type_symbol
 _atom_site_label
 _atom_site_symmetry_multiplicity
 _atom_site_fract_x
 _atom_site_fract_y
 _atom_site_fract_z
 _atom_site_occupancy
  Mg  Mg0  1  0.34954149  0.49999965  0.64188794  1
  P  P1  1  0.67055086  0.50000052  0.32081108  1
  P  P2  1  0.91426102  -0.00000035  0.09462452  1
  Ir  Ir3  1  0.56554663  0.00000018  0.44267645  1
