# generated using pymatgen
data_MgPdCl2
_symmetry_space_group_name_H-M   'P 1'
_cell_length_a   4.23223750
_cell_length_b   3.47206176
_cell_length_c   7.59038920
_cell_angle_alpha   90.01365806
_cell_angle_beta   122.47872042
_cell_angle_gamma   89.97582783
_symmetry_Int_Tables_number   1
_chemical_formula_structural   MgPdCl2
_chemical_formula_sum   'Mg1 Pd1 Cl2'
_cell_volume   94.09214865
_cell_formula_units_Z   1
loop_
 _symmetry_equiv_pos_site_id
 _symmetry_equiv_pos_as_xyz
  1  'x, y, z'
loop_
 _atom_site_type_symbol
 _atom_site_label
 _atom_site_symmetry_multiplicity
 _atom_site_fract_x
 _atom_site_fract_y
 _atom_site_fract_z
 _atom_site_occupancy
  Mg  Mg0  1  -0.04897917  0.49999789  0.43328050  1
  Pd  Pd1  1  0.63738778  -0.00000995  0.11971667  1
  Cl  Cl2  1  0.22358508  0.50000068  0.20334970  1
  Cl  Cl3  1  0.20600631  0.00001138  0.69165313  1
