# generated using pymatgen
data_MgReP2
_symmetry_space_group_name_H-M   'P 1'
_cell_length_a   3.20722477
_cell_length_b   4.54979387
_cell_length_c   4.59574407
_cell_angle_alpha   90.00000802
_cell_angle_beta   110.77473144
_cell_angle_gamma   89.99999666
_symmetry_Int_Tables_number   1
_chemical_formula_structural   MgReP2
_chemical_formula_sum   'Mg1 Re1 P2'
_cell_volume   62.70184143
_cell_formula_units_Z   1
loop_
 _symmetry_equiv_pos_site_id
 _symmetry_equiv_pos_as_xyz
  1  'x, y, z'
loop_
 _atom_site_type_symbol
 _atom_site_label
 _atom_site_symmetry_multiplicity
 _atom_site_fract_x
 _atom_site_fract_y
 _atom_site_fract_z
 _atom_site_occupancy
  Mg  Mg0  1  0.29983978  0.50000001  0.71553752  1
  Re  Re1  1  0.67518967  0.00000003  0.47493608  1
  P  P2  1  0.56913606  0.49999996  0.26703101  1
  P  P3  1  0.95583449  -0.00000000  0.04249539  1
