# generated using pymatgen
data_MgSiPd
_symmetry_space_group_name_H-M   'P 1'
_cell_length_a   4.26666046
_cell_length_b   4.26666039
_cell_length_c   3.07865920
_cell_angle_alpha   90.00000381
_cell_angle_beta   90.00000000
_cell_angle_gamma   120.00035795
_symmetry_Int_Tables_number   1
_chemical_formula_structural   MgSiPd
_chemical_formula_sum   'Mg1 Si1 Pd1'
_cell_volume   48.53631943
_cell_formula_units_Z   1
loop_
 _symmetry_equiv_pos_site_id
 _symmetry_equiv_pos_as_xyz
  1  'x, y, z'
loop_
 _atom_site_type_symbol
 _atom_site_label
 _atom_site_symmetry_multiplicity
 _atom_site_fract_x
 _atom_site_fract_y
 _atom_site_fract_z
 _atom_site_occupancy
  Mg  Mg0  1  0.00000000  0.00000005  0.00000001  1
  Si  Si1  1  0.33333330  0.66666666  0.50000005  1
  Pd  Pd2  1  0.66666670  0.33333329  0.49999994  1
