# generated using pymatgen
data_MgSnSb2
_symmetry_space_group_name_H-M   'P 1'
_cell_length_a   3.32565304
_cell_length_b   6.05135678
_cell_length_c   5.38711059
_cell_angle_alpha   90.00001232
_cell_angle_beta   89.95962397
_cell_angle_gamma   90.00004489
_symmetry_Int_Tables_number   1
_chemical_formula_structural   MgSnSb2
_chemical_formula_sum   'Mg1 Sn1 Sb2'
_cell_volume   108.41402789
_cell_formula_units_Z   1
loop_
 _symmetry_equiv_pos_site_id
 _symmetry_equiv_pos_as_xyz
  1  'x, y, z'
loop_
 _atom_site_type_symbol
 _atom_site_label
 _atom_site_symmetry_multiplicity
 _atom_site_fract_x
 _atom_site_fract_y
 _atom_site_fract_z
 _atom_site_occupancy
  Mg  Mg0  1  0.84874313  0.50000003  0.12953803  1
  Sn  Sn1  1  0.42147473  -0.00000005  0.62085459  1
  Sb  Sb2  1  0.34581534  0.49999995  0.62815567  1
  Sb  Sb3  1  0.88386680  0.00000007  0.12145171  1
