# generated using pymatgen
data_MgTiAs2
_symmetry_space_group_name_H-M   'P 1'
_cell_length_a   3.76446927
_cell_length_b   3.75542344
_cell_length_c   5.39616276
_cell_angle_alpha   90.00000312
_cell_angle_beta   89.77463455
_cell_angle_gamma   90.00000045
_symmetry_Int_Tables_number   1
_chemical_formula_structural   MgTiAs2
_chemical_formula_sum   'Mg1 Ti1 As2'
_cell_volume   76.28591329
_cell_formula_units_Z   1
loop_
 _symmetry_equiv_pos_site_id
 _symmetry_equiv_pos_as_xyz
  1  'x, y, z'
loop_
 _atom_site_type_symbol
 _atom_site_label
 _atom_site_symmetry_multiplicity
 _atom_site_fract_x
 _atom_site_fract_y
 _atom_site_fract_z
 _atom_site_occupancy
  Mg  Mg0  1  0.00303111  -0.00000024  0.40989077  1
  Ti  Ti1  1  0.49733808  0.50000021  0.82463972  1
  As  As2  1  0.50266914  0.49999982  0.36160388  1
  As  As3  1  0.99706167  0.00000020  0.90376563  1
