# generated using pymatgen
data_MgWSe2
_symmetry_space_group_name_H-M   'P 1'
_cell_length_a   3.07882382
_cell_length_b   3.07903119
_cell_length_c   14.67559650
_cell_angle_alpha   90.08130788
_cell_angle_beta   89.85240801
_cell_angle_gamma   120.00885752
_symmetry_Int_Tables_number   1
_chemical_formula_structural   MgWSe2
_chemical_formula_sum   'Mg1 W1 Se2'
_cell_volume   120.47171868
_cell_formula_units_Z   1
loop_
 _symmetry_equiv_pos_site_id
 _symmetry_equiv_pos_as_xyz
  1  'x, y, z'
loop_
 _atom_site_type_symbol
 _atom_site_label
 _atom_site_symmetry_multiplicity
 _atom_site_fract_x
 _atom_site_fract_y
 _atom_site_fract_z
 _atom_site_occupancy
  Mg  Mg0  1  0.00004515  -0.00008320  0.51594680  1
  W  W1  1  0.66740362  0.33330134  -0.00760830  1
  Se  Se2  1  -0.00030027  0.00005327  0.11032513  1
  Se  Se3  1  0.33285150  0.66672858  0.37133637  1
