# generated using pymatgen
data_MnHI2
_symmetry_space_group_name_H-M   'P 1'
_cell_length_a   4.10119110
_cell_length_b   4.10119107
_cell_length_c   7.53776727
_cell_angle_alpha   89.99994815
_cell_angle_beta   90.00005085
_cell_angle_gamma   120.00024059
_symmetry_Int_Tables_number   1
_chemical_formula_structural   MnHI2
_chemical_formula_sum   'Mn1 H1 I2'
_cell_volume   109.79746476
_cell_formula_units_Z   1
loop_
 _symmetry_equiv_pos_site_id
 _symmetry_equiv_pos_as_xyz
  1  'x, y, z'
loop_
 _atom_site_type_symbol
 _atom_site_label
 _atom_site_symmetry_multiplicity
 _atom_site_fract_x
 _atom_site_fract_y
 _atom_site_fract_z
 _atom_site_occupancy
  Mn  Mn0  1  -0.00000023  0.00000020  0.00141260  1
  H  H1  1  0.66666697  0.33333305  0.61994251  1
  I  I2  1  0.33333332  0.66666672  0.77878935  1
  I  I3  1  0.66666660  0.33333337  0.21985554  1
