# generated using pymatgen
data_MnSiNi
_symmetry_space_group_name_H-M   'P 1'
_cell_length_a   3.92413641
_cell_length_b   3.92413641
_cell_length_c   2.65038409
_cell_angle_alpha   89.99999936
_cell_angle_beta   89.99999913
_cell_angle_gamma   120.00006265
_symmetry_Int_Tables_number   1
_chemical_formula_structural   MnSiNi
_chemical_formula_sum   'Mn1 Si1 Ni1'
_cell_volume   35.34494948
_cell_formula_units_Z   1
loop_
 _symmetry_equiv_pos_site_id
 _symmetry_equiv_pos_as_xyz
  1  'x, y, z'
loop_
 _atom_site_type_symbol
 _atom_site_label
 _atom_site_symmetry_multiplicity
 _atom_site_fract_x
 _atom_site_fract_y
 _atom_site_fract_z
 _atom_site_occupancy
  Mn  Mn0  1  0.00000004  -0.00000004  -0.00000003  1
  Si  Si1  1  0.33333330  0.66666673  0.49999996  1
  Ni  Ni2  1  0.66666666  0.33333331  0.50000007  1
