# generated using pymatgen
data_MnTlI
_symmetry_space_group_name_H-M   'P 1'
_cell_length_a   7.04657888
_cell_length_b   7.04700088
_cell_length_c   3.82662838
_cell_angle_alpha   89.98513212
_cell_angle_beta   90.03016740
_cell_angle_gamma   45.15697062
_symmetry_Int_Tables_number   1
_chemical_formula_structural   MnTlI
_chemical_formula_sum   'Mn1 Tl1 I1'
_cell_volume   134.73184715
_cell_formula_units_Z   1
loop_
 _symmetry_equiv_pos_site_id
 _symmetry_equiv_pos_as_xyz
  1  'x, y, z'
loop_
 _atom_site_type_symbol
 _atom_site_label
 _atom_site_symmetry_multiplicity
 _atom_site_fract_x
 _atom_site_fract_y
 _atom_site_fract_z
 _atom_site_occupancy
  Mn  Mn0  1  0.02821224  0.02820230  0.00000449  1
  Tl  Tl1  1  0.47915067  0.47915988  -0.00000213  1
  I  I2  1  0.22733709  0.22733782  -0.00000236  1
