# generated using pymatgen
data_MoSeCl
_symmetry_space_group_name_H-M   'P 1'
_cell_length_a   3.23808854
_cell_length_b   3.23808830
_cell_length_c   7.62408536
_cell_angle_alpha   90.00001343
_cell_angle_beta   90.00001022
_cell_angle_gamma   119.99999113
_symmetry_Int_Tables_number   1
_chemical_formula_structural   MoSeCl
_chemical_formula_sum   'Mo1 Se1 Cl1'
_cell_volume   69.23023840
_cell_formula_units_Z   1
loop_
 _symmetry_equiv_pos_site_id
 _symmetry_equiv_pos_as_xyz
  1  'x, y, z'
loop_
 _atom_site_type_symbol
 _atom_site_label
 _atom_site_symmetry_multiplicity
 _atom_site_fract_x
 _atom_site_fract_y
 _atom_site_fract_z
 _atom_site_occupancy
  Mo  Mo0  1  0.66666652  0.33333334  0.33622410  1
  Se  Se1  1  0.33333344  0.66666693  0.55791869  1
  Cl  Cl2  1  0.00000003  -0.00000027  0.10585721  1
