# generated using pymatgen
data_NaBiTe2
_symmetry_space_group_name_H-M   'P 1'
_cell_length_a   3.23653556
_cell_length_b   6.31915948
_cell_length_c   6.48646979
_cell_angle_alpha   89.99999403
_cell_angle_beta   104.36510542
_cell_angle_gamma   90.00002720
_symmetry_Int_Tables_number   1
_chemical_formula_structural   NaBiTe2
_chemical_formula_sum   'Na1 Bi1 Te2'
_cell_volume   128.51470969
_cell_formula_units_Z   1
loop_
 _symmetry_equiv_pos_site_id
 _symmetry_equiv_pos_as_xyz
  1  'x, y, z'
loop_
 _atom_site_type_symbol
 _atom_site_label
 _atom_site_symmetry_multiplicity
 _atom_site_fract_x
 _atom_site_fract_y
 _atom_site_fract_z
 _atom_site_occupancy
  Na  Na0  1  0.34109133  0.49999999  0.84694191  1
  Bi  Bi1  1  0.64401681  0.00000002  0.39769886  1
  Te  Te2  1  0.62922704  0.49999999  0.37276842  1
  Te  Te3  1  0.88566481  0.00000000  0.88259082  1
