# generated using pymatgen
data_NaDyI2
_symmetry_space_group_name_H-M   'P 1'
_cell_length_a   6.96190450
_cell_length_b   3.97940218
_cell_length_c   8.55128593
_cell_angle_alpha   90.00447672
_cell_angle_beta   97.56025801
_cell_angle_gamma   89.99899319
_symmetry_Int_Tables_number   1
_chemical_formula_structural   NaDyI2
_chemical_formula_sum   'Na1 Dy1 I2'
_cell_volume   234.84726800
_cell_formula_units_Z   1
loop_
 _symmetry_equiv_pos_site_id
 _symmetry_equiv_pos_as_xyz
  1  'x, y, z'
loop_
 _atom_site_type_symbol
 _atom_site_label
 _atom_site_symmetry_multiplicity
 _atom_site_fract_x
 _atom_site_fract_y
 _atom_site_fract_z
 _atom_site_occupancy
  Na  Na0  1  0.53432073  0.49999852  -0.04397305  1
  Dy  Dy1  1  -0.00124635  0.00000944  0.03033573  1
  I  I2  1  0.23079627  0.50000954  0.25233896  1
  I  I3  1  0.20712935  -0.00001750  0.75929836  1
