# generated using pymatgen
data_NaFeI2
_symmetry_space_group_name_H-M   'P 1'
_cell_length_a   4.55044129
_cell_length_b   4.26094564
_cell_length_c   8.10357860
_cell_angle_alpha   89.95842041
_cell_angle_beta   97.56790165
_cell_angle_gamma   89.99968014
_symmetry_Int_Tables_number   1
_chemical_formula_structural   NaFeI2
_chemical_formula_sum   'Na1 Fe1 I2'
_cell_volume   155.75311381
_cell_formula_units_Z   1
loop_
 _symmetry_equiv_pos_site_id
 _symmetry_equiv_pos_as_xyz
  1  'x, y, z'
loop_
 _atom_site_type_symbol
 _atom_site_label
 _atom_site_symmetry_multiplicity
 _atom_site_fract_x
 _atom_site_fract_y
 _atom_site_fract_z
 _atom_site_occupancy
  Na  Na0  1  0.60160444  0.50015216  -0.08419863  1
  Fe  Fe1  1  0.12770097  -0.00017414  0.05034039  1
  I  I2  1  0.15610659  0.50017125  0.24574268  1
  I  I3  1  0.07258800  -0.00014927  0.73941556  1
