# generated using pymatgen
data_NaLiTe
_symmetry_space_group_name_H-M   'P 1'
_cell_length_a   4.59747520
_cell_length_b   4.59747531
_cell_length_c   4.49391902
_cell_angle_alpha   90.00000050
_cell_angle_beta   89.99999899
_cell_angle_gamma   120.00023670
_symmetry_Int_Tables_number   1
_chemical_formula_structural   NaLiTe
_chemical_formula_sum   'Na1 Li1 Te1'
_cell_volume   82.26093450
_cell_formula_units_Z   1
loop_
 _symmetry_equiv_pos_site_id
 _symmetry_equiv_pos_as_xyz
  1  'x, y, z'
loop_
 _atom_site_type_symbol
 _atom_site_label
 _atom_site_symmetry_multiplicity
 _atom_site_fract_x
 _atom_site_fract_y
 _atom_site_fract_z
 _atom_site_occupancy
  Na  Na0  1  0.66666675  0.33333325  0.00000000  1
  Li  Li1  1  0.00000025  -0.00000025  0.50000000  1
  Te  Te2  1  0.33333300  0.66666700  0.50000000  1
