# generated using pymatgen
data_NaMnS
_symmetry_space_group_name_H-M   'P 1'
_cell_length_a   3.72198992
_cell_length_b   3.72198899
_cell_length_c   6.31484446
_cell_angle_alpha   90.00005089
_cell_angle_beta   89.99993091
_cell_angle_gamma   120.00037441
_symmetry_Int_Tables_number   1
_chemical_formula_structural   NaMnS
_chemical_formula_sum   'Na1 Mn1 S1'
_cell_volume   75.76034220
_cell_formula_units_Z   1
loop_
 _symmetry_equiv_pos_site_id
 _symmetry_equiv_pos_as_xyz
  1  'x, y, z'
loop_
 _atom_site_type_symbol
 _atom_site_label
 _atom_site_symmetry_multiplicity
 _atom_site_fract_x
 _atom_site_fract_y
 _atom_site_fract_z
 _atom_site_occupancy
  Na  Na0  1  0.00000026  -0.00000033  0.50274311  1
  Mn  Mn1  1  0.00000038  -0.00000047  0.01368535  1
  S  S2  1  0.33333269  0.66666746  0.18287154  1
