# generated using pymatgen
data_NaMoI2
_symmetry_space_group_name_H-M   'P 1'
_cell_length_a   5.38953614
_cell_length_b   5.29681279
_cell_length_c   7.56740536
_cell_angle_alpha   89.99908695
_cell_angle_beta   136.03083369
_cell_angle_gamma   89.99898280
_symmetry_Int_Tables_number   1
_chemical_formula_structural   NaMoI2
_chemical_formula_sum   'Na1 Mo1 I2'
_cell_volume   149.98303352
_cell_formula_units_Z   1
loop_
 _symmetry_equiv_pos_site_id
 _symmetry_equiv_pos_as_xyz
  1  'x, y, z'
loop_
 _atom_site_type_symbol
 _atom_site_label
 _atom_site_symmetry_multiplicity
 _atom_site_fract_x
 _atom_site_fract_y
 _atom_site_fract_z
 _atom_site_occupancy
  Na  Na0  1  0.50186034  0.50000747  0.00276706  1
  Mo  Mo1  1  -0.01922394  -0.00000910  -0.01326184  1
  I  I2  1  0.26500887  0.49999591  0.26477543  1
  I  I3  1  0.21035473  0.00000572  0.71941935  1
