# generated using pymatgen
data_NaTiSe2
_symmetry_space_group_name_H-M   'P 1'
_cell_length_a   3.83109048
_cell_length_b   4.12222659
_cell_length_c   6.83166761
_cell_angle_alpha   90.00000155
_cell_angle_beta   105.36482289
_cell_angle_gamma   90.00000067
_symmetry_Int_Tables_number   1
_chemical_formula_structural   NaTiSe2
_chemical_formula_sum   'Na1 Ti1 Se2'
_cell_volume   104.03377718
_cell_formula_units_Z   1
loop_
 _symmetry_equiv_pos_site_id
 _symmetry_equiv_pos_as_xyz
  1  'x, y, z'
loop_
 _atom_site_type_symbol
 _atom_site_label
 _atom_site_symmetry_multiplicity
 _atom_site_fract_x
 _atom_site_fract_y
 _atom_site_fract_z
 _atom_site_occupancy
  Na  Na0  1  0.66403577  0.50000002  0.20418885  1
  Ti  Ti1  1  0.44425212  -0.00000001  0.75206780  1
  Se  Se2  1  0.06050934  0.00000001  -0.00489039  1
  Se  Se3  1  0.33120278  0.49999999  0.54863375  1
