# generated using pymatgen
data_NaZnAs
_symmetry_space_group_name_H-M   'P 1'
_cell_length_a   4.19043647
_cell_length_b   4.19043622
_cell_length_c   4.65208531
_cell_angle_alpha   90.00000493
_cell_angle_beta   89.99999286
_cell_angle_gamma   120.00010069
_symmetry_Int_Tables_number   1
_chemical_formula_structural   NaZnAs
_chemical_formula_sum   'Na1 Zn1 As1'
_cell_volume   70.74509869
_cell_formula_units_Z   1
loop_
 _symmetry_equiv_pos_site_id
 _symmetry_equiv_pos_as_xyz
  1  'x, y, z'
loop_
 _atom_site_type_symbol
 _atom_site_label
 _atom_site_symmetry_multiplicity
 _atom_site_fract_x
 _atom_site_fract_y
 _atom_site_fract_z
 _atom_site_occupancy
  Na  Na0  1  0.66666691  0.33333328  0.00000011  1
  Zn  Zn1  1  0.33333309  0.66666682  0.49999993  1
  As  As2  1  -0.00000000  -0.00000010  0.49999997  1
