# generated using pymatgen
data_NbClO
_symmetry_space_group_name_H-M   'P 1'
_cell_length_a   4.15650329
_cell_length_b   4.15650310
_cell_length_c   3.07475977
_cell_angle_alpha   89.99999917
_cell_angle_beta   90.00000032
_cell_angle_gamma   120.00001253
_symmetry_Int_Tables_number   1
_chemical_formula_structural   NbClO
_chemical_formula_sum   'Nb1 Cl1 O1'
_cell_volume   46.00425523
_cell_formula_units_Z   1
loop_
 _symmetry_equiv_pos_site_id
 _symmetry_equiv_pos_as_xyz
  1  'x, y, z'
loop_
 _atom_site_type_symbol
 _atom_site_label
 _atom_site_symmetry_multiplicity
 _atom_site_fract_x
 _atom_site_fract_y
 _atom_site_fract_z
 _atom_site_occupancy
  Nb  Nb0  1  0.66666665  0.33333336  0.00000001  1
  Cl  Cl1  1  0.33333338  0.66666666  -0.00000002  1
  O  O2  1  -0.00000003  -0.00000002  0.00000001  1
