# generated using pymatgen
data_NbCuBr2
_symmetry_space_group_name_H-M   'P 1'
_cell_length_a   3.40531736
_cell_length_b   3.39340327
_cell_length_c   7.96343365
_cell_angle_alpha   89.99742806
_cell_angle_beta   101.25919006
_cell_angle_gamma   90.01300594
_symmetry_Int_Tables_number   1
_chemical_formula_structural   NbCuBr2
_chemical_formula_sum   'Nb1 Cu1 Br2'
_cell_volume   90.25130696
_cell_formula_units_Z   1
loop_
 _symmetry_equiv_pos_site_id
 _symmetry_equiv_pos_as_xyz
  1  'x, y, z'
loop_
 _atom_site_type_symbol
 _atom_site_label
 _atom_site_symmetry_multiplicity
 _atom_site_fract_x
 _atom_site_fract_y
 _atom_site_fract_z
 _atom_site_occupancy
  Nb  Nb0  1  0.35319536  0.50000789  -0.06416790  1
  Cu  Cu1  1  -0.06891638  0.00000281  0.10384476  1
  Br  Br2  1  0.50815269  0.49998027  0.27679547  1
  Br  Br3  1  0.23556834  0.00000903  0.68482767  1
