# generated using pymatgen
data_NbFeN
_symmetry_space_group_name_H-M   'P 1'
_cell_length_a   2.95096218
_cell_length_b   2.95096148
_cell_length_c   6.34680400
_cell_angle_alpha   90.00001507
_cell_angle_beta   90.00000758
_cell_angle_gamma   120.00025710
_symmetry_Int_Tables_number   1
_chemical_formula_structural   NbFeN
_chemical_formula_sum   'Nb1 Fe1 N1'
_cell_volume   47.86430729
_cell_formula_units_Z   1
loop_
 _symmetry_equiv_pos_site_id
 _symmetry_equiv_pos_as_xyz
  1  'x, y, z'
loop_
 _atom_site_type_symbol
 _atom_site_label
 _atom_site_symmetry_multiplicity
 _atom_site_fract_x
 _atom_site_fract_y
 _atom_site_fract_z
 _atom_site_occupancy
  Nb  Nb0  1  0.00000025  0.00000008  0.53091341  1
  Fe  Fe1  1  -0.00000037  -0.00000023  -0.03214218  1
  N  N2  1  0.00000012  0.00000015  0.24452876  1
