# generated using pymatgen
data_NbIBr2
_symmetry_space_group_name_H-M   'P 1'
_cell_length_a   3.39275663
_cell_length_b   3.39056218
_cell_length_c   10.91285027
_cell_angle_alpha   89.82368910
_cell_angle_beta   90.07652183
_cell_angle_gamma   90.04417041
_symmetry_Int_Tables_number   1
_chemical_formula_structural   NbIBr2
_chemical_formula_sum   'Nb1 I1 Br2'
_cell_volume   125.53361841
_cell_formula_units_Z   1
loop_
 _symmetry_equiv_pos_site_id
 _symmetry_equiv_pos_as_xyz
  1  'x, y, z'
loop_
 _atom_site_type_symbol
 _atom_site_label
 _atom_site_symmetry_multiplicity
 _atom_site_fract_x
 _atom_site_fract_y
 _atom_site_fract_z
 _atom_site_occupancy
  Nb  Nb0  1  0.49961428  0.50081026  0.01474711  1
  I  I1  1  -0.00032225  0.00132643  -0.14057398  1
  Br  Br2  1  0.00045347  -0.00136471  0.53336390  1
  Br  Br3  1  0.50025451  0.49922802  0.23416297  1
