# generated using pymatgen
data_NbPRu
_symmetry_space_group_name_H-M   'P 1'
_cell_length_a   3.80643032
_cell_length_b   4.14496274
_cell_length_c   3.09346548
_cell_angle_alpha   89.99999764
_cell_angle_beta   90.00000173
_cell_angle_gamma   89.99997347
_symmetry_Int_Tables_number   1
_chemical_formula_structural   NbPRu
_chemical_formula_sum   'Nb1 P1 Ru1'
_cell_volume   48.80718826
_cell_formula_units_Z   1
loop_
 _symmetry_equiv_pos_site_id
 _symmetry_equiv_pos_as_xyz
  1  'x, y, z'
loop_
 _atom_site_type_symbol
 _atom_site_label
 _atom_site_symmetry_multiplicity
 _atom_site_fract_x
 _atom_site_fract_y
 _atom_site_fract_z
 _atom_site_occupancy
  Nb  Nb0  1  -0.00000002  -0.00000000  0.50000002  1
  P  P1  1  0.00000001  0.50000000  -0.00000000  1
  Ru  Ru2  1  0.50000001  0.50000001  0.49999998  1
