# generated using pymatgen
data_NbSeBr
_symmetry_space_group_name_H-M   'P 1'
_cell_length_a   4.61678431
_cell_length_b   4.61678298
_cell_length_c   3.34809773
_cell_angle_alpha   90.00000749
_cell_angle_beta   89.99998515
_cell_angle_gamma   120.00002115
_symmetry_Int_Tables_number   1
_chemical_formula_structural   NbSeBr
_chemical_formula_sum   'Nb1 Se1 Br1'
_cell_volume   61.80273740
_cell_formula_units_Z   1
loop_
 _symmetry_equiv_pos_site_id
 _symmetry_equiv_pos_as_xyz
  1  'x, y, z'
loop_
 _atom_site_type_symbol
 _atom_site_label
 _atom_site_symmetry_multiplicity
 _atom_site_fract_x
 _atom_site_fract_y
 _atom_site_fract_z
 _atom_site_occupancy
  Nb  Nb0  1  0.66666668  0.33333334  0.00000003  1
  Se  Se1  1  0.33333330  0.66666666  0.50000000  1
  Br  Br2  1  0.00000001  -0.00000000  -0.00000003  1
