# generated using pymatgen
data_NbSI
_symmetry_space_group_name_H-M   'P 1'
_cell_length_a   4.14679335
_cell_length_b   4.14680147
_cell_length_c   5.16331340
_cell_angle_alpha   89.99982356
_cell_angle_beta   90.00030650
_cell_angle_gamma   119.99987477
_symmetry_Int_Tables_number   1
_chemical_formula_structural   NbSI
_chemical_formula_sum   'Nb1 S1 I1'
_cell_volume   76.89273398
_cell_formula_units_Z   1
loop_
 _symmetry_equiv_pos_site_id
 _symmetry_equiv_pos_as_xyz
  1  'x, y, z'
loop_
 _atom_site_type_symbol
 _atom_site_label
 _atom_site_symmetry_multiplicity
 _atom_site_fract_x
 _atom_site_fract_y
 _atom_site_fract_z
 _atom_site_occupancy
  Nb  Nb0  1  0.00000192  0.00000250  0.00000193  1
  S  S1  1  0.33333245  0.66666580  -0.00000087  1
  I  I2  1  0.66666563  0.33333170  0.49999895  1
