# generated using pymatgen
data_NdCoAs
_symmetry_space_group_name_H-M   'P 1'
_cell_length_a   3.98428501
_cell_length_b   3.98424043
_cell_length_c   5.09246309
_cell_angle_alpha   90.00763747
_cell_angle_beta   89.99500873
_cell_angle_gamma   119.99748857
_symmetry_Int_Tables_number   1
_chemical_formula_structural   NdCoAs
_chemical_formula_sum   'Nd1 Co1 As1'
_cell_volume   70.01086514
_cell_formula_units_Z   1
loop_
 _symmetry_equiv_pos_site_id
 _symmetry_equiv_pos_as_xyz
  1  'x, y, z'
loop_
 _atom_site_type_symbol
 _atom_site_label
 _atom_site_symmetry_multiplicity
 _atom_site_fract_x
 _atom_site_fract_y
 _atom_site_fract_z
 _atom_site_occupancy
  Nd  Nd0  1  0.00001398  -0.00001959  -0.04485792  1
  Co  Co1  1  -0.00001107  0.00001588  0.45799303  1
  As  As2  1  0.33333042  0.66667037  0.40016489  1
