# generated using pymatgen
data_NdPRu
_symmetry_space_group_name_H-M   'P 1'
_cell_length_a   3.73479614
_cell_length_b   3.73479588
_cell_length_c   5.75015533
_cell_angle_alpha   90.00001039
_cell_angle_beta   89.99999647
_cell_angle_gamma   119.99999306
_symmetry_Int_Tables_number   1
_chemical_formula_structural   NdPRu
_chemical_formula_sum   'Nd1 P1 Ru1'
_cell_volume   69.46147663
_cell_formula_units_Z   1
loop_
 _symmetry_equiv_pos_site_id
 _symmetry_equiv_pos_as_xyz
  1  'x, y, z'
loop_
 _atom_site_type_symbol
 _atom_site_label
 _atom_site_symmetry_multiplicity
 _atom_site_fract_x
 _atom_site_fract_y
 _atom_site_fract_z
 _atom_site_occupancy
  Nd  Nd0  1  0.00000000  0.00000006  0.01102266  1
  P  P1  1  0.33333330  0.66666664  0.63925557  1
  Ru  Ru2  1  0.00000003  -0.00000004  0.51172177  1
