# generated using pymatgen
data_NiSb2Ru
_symmetry_space_group_name_H-M   'P 1'
_cell_length_a   3.32934551
_cell_length_b   4.11327778
_cell_length_c   5.39372362
_cell_angle_alpha   89.99999913
_cell_angle_beta   108.09182574
_cell_angle_gamma   90.00000037
_symmetry_Int_Tables_number   1
_chemical_formula_structural   NiSb2Ru
_chemical_formula_sum   'Ni1 Sb2 Ru1'
_cell_volume   70.21261554
_cell_formula_units_Z   1
loop_
 _symmetry_equiv_pos_site_id
 _symmetry_equiv_pos_as_xyz
  1  'x, y, z'
loop_
 _atom_site_type_symbol
 _atom_site_label
 _atom_site_symmetry_multiplicity
 _atom_site_fract_x
 _atom_site_fract_y
 _atom_site_fract_z
 _atom_site_occupancy
  Ni  Ni0  1  0.71987552  0.00000001  0.56455735  1
  Sb  Sb1  1  0.26481550  0.49999999  0.64970257  1
  Sb  Sb2  1  0.97884036  -0.00000000  0.07463458  1
  Ru  Ru3  1  0.54646862  0.50000000  0.21110550  1
