# generated using pymatgen
data_NiTe2Ir
_symmetry_space_group_name_H-M   'P 1'
_cell_length_a   3.19421704
_cell_length_b   3.69912143
_cell_length_c   7.20095037
_cell_angle_alpha   90.00031854
_cell_angle_beta   90.00966128
_cell_angle_gamma   90.00129797
_symmetry_Int_Tables_number   1
_chemical_formula_structural   NiTe2Ir
_chemical_formula_sum   'Ni1 Te2 Ir1'
_cell_volume   85.08496457
_cell_formula_units_Z   1
loop_
 _symmetry_equiv_pos_site_id
 _symmetry_equiv_pos_as_xyz
  1  'x, y, z'
loop_
 _atom_site_type_symbol
 _atom_site_label
 _atom_site_symmetry_multiplicity
 _atom_site_fract_x
 _atom_site_fract_y
 _atom_site_fract_z
 _atom_site_occupancy
  Ni  Ni0  1  -0.00539355  0.00000269  -0.00591074  1
  Te  Te1  1  -0.00117992  -0.00000298  0.34824064  1
  Te  Te2  1  0.49533918  0.49999605  0.87193214  1
  Ir  Ir3  1  0.49713429  0.50000424  0.50383796  1
