# generated using pymatgen
data_OsSeCl2
_symmetry_space_group_name_H-M   'P 1'
_cell_length_a   4.55158543
_cell_length_b   4.77826908
_cell_length_c   4.55158391
_cell_angle_alpha   89.99999644
_cell_angle_beta   89.99999081
_cell_angle_gamma   89.99999729
_symmetry_Int_Tables_number   1
_chemical_formula_structural   OsSeCl2
_chemical_formula_sum   'Os1 Se1 Cl2'
_cell_volume   98.99103264
_cell_formula_units_Z   1
loop_
 _symmetry_equiv_pos_site_id
 _symmetry_equiv_pos_as_xyz
  1  'x, y, z'
loop_
 _atom_site_type_symbol
 _atom_site_label
 _atom_site_symmetry_multiplicity
 _atom_site_fract_x
 _atom_site_fract_y
 _atom_site_fract_z
 _atom_site_occupancy
  Os  Os0  1  0.50000000  0.50000000  0.49999999  1
  Se  Se1  1  -0.00000001  0.00000000  0.00000002  1
  Cl  Cl2  1  0.00000000  0.50000001  0.49999997  1
  Cl  Cl3  1  0.50000000  0.49999999  0.00000002  1
