# generated using pymatgen
data_PPb2Cl
_symmetry_space_group_name_H-M   'P 1'
_cell_length_a   4.30817973
_cell_length_b   6.05755006
_cell_length_c   4.30854599
_cell_angle_alpha   90.00005173
_cell_angle_beta   90.21010775
_cell_angle_gamma   89.99999521
_symmetry_Int_Tables_number   1
_chemical_formula_structural   PPb2Cl
_chemical_formula_sum   'P1 Pb2 Cl1'
_cell_volume   112.43943069
_cell_formula_units_Z   1
loop_
 _symmetry_equiv_pos_site_id
 _symmetry_equiv_pos_as_xyz
  1  'x, y, z'
loop_
 _atom_site_type_symbol
 _atom_site_label
 _atom_site_symmetry_multiplicity
 _atom_site_fract_x
 _atom_site_fract_y
 _atom_site_fract_z
 _atom_site_occupancy
  P  P0  1  0.84532041  0.49999936  0.87972084  1
  Pb  Pb1  1  0.36353531  0.49999992  0.36293562  1
  Pb  Pb2  1  0.84686772  0.00000090  0.87867767  1
  Cl  Cl3  1  0.34427656  -0.00000017  0.37866587  1
