# generated using pymatgen
data_PrAuCl
_symmetry_space_group_name_H-M   'P 1'
_cell_length_a   3.90617829
_cell_length_b   3.83090668
_cell_length_c   6.36358274
_cell_angle_alpha   89.99988658
_cell_angle_beta   90.00373466
_cell_angle_gamma   90.00149328
_symmetry_Int_Tables_number   1
_chemical_formula_structural   PrAuCl
_chemical_formula_sum   'Pr1 Au1 Cl1'
_cell_volume   95.22595338
_cell_formula_units_Z   1
loop_
 _symmetry_equiv_pos_site_id
 _symmetry_equiv_pos_as_xyz
  1  'x, y, z'
loop_
 _atom_site_type_symbol
 _atom_site_label
 _atom_site_symmetry_multiplicity
 _atom_site_fract_x
 _atom_site_fract_y
 _atom_site_fract_z
 _atom_site_occupancy
  Pr  Pr0  1  0.49999726  0.50000534  0.61433133  1
  Au  Au1  1  -0.00000762  -0.00000521  -0.16163885  1
  Cl  Cl2  1  0.00001036  0.49999987  0.30060752  1
