# generated using pymatgen
data_PrBrO
_symmetry_space_group_name_H-M   'P 1'
_cell_length_a   3.44644857
_cell_length_b   3.44644851
_cell_length_c   5.32492924
_cell_angle_alpha   89.99999857
_cell_angle_beta   89.99999945
_cell_angle_gamma   89.99999867
_symmetry_Int_Tables_number   1
_chemical_formula_structural   PrBrO
_chemical_formula_sum   'Pr1 Br1 O1'
_cell_volume   63.24954966
_cell_formula_units_Z   1
loop_
 _symmetry_equiv_pos_site_id
 _symmetry_equiv_pos_as_xyz
  1  'x, y, z'
loop_
 _atom_site_type_symbol
 _atom_site_label
 _atom_site_symmetry_multiplicity
 _atom_site_fract_x
 _atom_site_fract_y
 _atom_site_fract_z
 _atom_site_occupancy
  Pr  Pr0  1  -0.00000000  0.00000000  0.49999996  1
  Br  Br1  1  0.50000000  0.50000000  0.00000002  1
  O  O2  1  0.50000000  0.50000000  0.50000002  1
