# generated using pymatgen
data_PrCrP
_symmetry_space_group_name_H-M   'P 1'
_cell_length_a   4.21551203
_cell_length_b   4.21549994
_cell_length_c   4.17543447
_cell_angle_alpha   90.00051950
_cell_angle_beta   89.99984096
_cell_angle_gamma   119.99994514
_symmetry_Int_Tables_number   1
_chemical_formula_structural   PrCrP
_chemical_formula_sum   'Pr1 Cr1 P1'
_cell_volume   64.25870439
_cell_formula_units_Z   1
loop_
 _symmetry_equiv_pos_site_id
 _symmetry_equiv_pos_as_xyz
  1  'x, y, z'
loop_
 _atom_site_type_symbol
 _atom_site_label
 _atom_site_symmetry_multiplicity
 _atom_site_fract_x
 _atom_site_fract_y
 _atom_site_fract_z
 _atom_site_occupancy
  Pr  Pr0  1  0.33333330  0.66666668  0.56487454  1
  Cr  Cr1  1  0.66666660  0.33333341  0.06613933  1
  P  P2  1  0.00000010  -0.00000010  0.06228613  1
