# generated using pymatgen
data_PRhS2
_symmetry_space_group_name_H-M   'P 1'
_cell_length_a   4.06721122
_cell_length_b   3.10160128
_cell_length_c   5.90896016
_cell_angle_alpha   89.99999960
_cell_angle_beta   66.76305158
_cell_angle_gamma   89.99999963
_symmetry_Int_Tables_number   1
_chemical_formula_structural   PRhS2
_chemical_formula_sum   'P1 Rh1 S2'
_cell_volume   68.49408643
_cell_formula_units_Z   1
loop_
 _symmetry_equiv_pos_site_id
 _symmetry_equiv_pos_as_xyz
  1  'x, y, z'
loop_
 _atom_site_type_symbol
 _atom_site_label
 _atom_site_symmetry_multiplicity
 _atom_site_fract_x
 _atom_site_fract_y
 _atom_site_fract_z
 _atom_site_occupancy
  P  P0  1  -0.02288707  0.50000000  0.04990505  1
  Rh  Rh1  1  0.55670890  0.00000001  0.37476196  1
  S  S2  1  0.09914052  0.50000000  0.36925538  1
  S  S3  1  0.36503765  -0.00000000  0.81377762  1
