# generated using pymatgen
data_PrMnP
_symmetry_space_group_name_H-M   'P 1'
_cell_length_a   3.94387517
_cell_length_b   3.94388681
_cell_length_c   4.26232500
_cell_angle_alpha   89.99494960
_cell_angle_beta   90.00590567
_cell_angle_gamma   120.00010003
_symmetry_Int_Tables_number   1
_chemical_formula_structural   PrMnP
_chemical_formula_sum   'Pr1 Mn1 P1'
_cell_volume   57.41486577
_cell_formula_units_Z   1
loop_
 _symmetry_equiv_pos_site_id
 _symmetry_equiv_pos_as_xyz
  1  'x, y, z'
loop_
 _atom_site_type_symbol
 _atom_site_label
 _atom_site_symmetry_multiplicity
 _atom_site_fract_x
 _atom_site_fract_y
 _atom_site_fract_z
 _atom_site_occupancy
  Pr  Pr0  1  0.33333324  0.66666689  0.56462264  1
  Mn  Mn1  1  0.66666694  0.33333393  0.06426608  1
  P  P2  1  -0.00000017  -0.00000082  0.06441128  1
