# generated using pymatgen
data_PrPIr
_symmetry_space_group_name_H-M   'P 1'
_cell_length_a   3.61894279
_cell_length_b   3.61894280
_cell_length_c   6.17865365
_cell_angle_alpha   89.99999972
_cell_angle_beta   90.00000025
_cell_angle_gamma   119.99999724
_symmetry_Int_Tables_number   1
_chemical_formula_structural   PrPIr
_chemical_formula_sum   'Pr1 P1 Ir1'
_cell_volume   70.07900578
_cell_formula_units_Z   1
loop_
 _symmetry_equiv_pos_site_id
 _symmetry_equiv_pos_as_xyz
  1  'x, y, z'
loop_
 _atom_site_type_symbol
 _atom_site_label
 _atom_site_symmetry_multiplicity
 _atom_site_fract_x
 _atom_site_fract_y
 _atom_site_fract_z
 _atom_site_occupancy
  Pr  Pr0  1  -0.00000000  0.00000000  0.01918713  1
  P  P1  1  0.33333333  0.66666667  0.64296500  1
  Ir  Ir2  1  -0.00000000  0.00000000  0.50064787  1
