# generated using pymatgen
data_PrSb2P
_symmetry_space_group_name_H-M   'P 1'
_cell_length_a   4.34314511
_cell_length_b   4.34314568
_cell_length_c   6.40412198
_cell_angle_alpha   90.00000022
_cell_angle_beta   90.00000075
_cell_angle_gamma   90.00000000
_symmetry_Int_Tables_number   1
_chemical_formula_structural   PrSb2P
_chemical_formula_sum   'Pr1 Sb2 P1'
_cell_volume   120.80038885
_cell_formula_units_Z   1
loop_
 _symmetry_equiv_pos_site_id
 _symmetry_equiv_pos_as_xyz
  1  'x, y, z'
loop_
 _atom_site_type_symbol
 _atom_site_label
 _atom_site_symmetry_multiplicity
 _atom_site_fract_x
 _atom_site_fract_y
 _atom_site_fract_z
 _atom_site_occupancy
  Pr  Pr0  1  -0.00000000  0.00000000  -0.00000001  1
  Sb  Sb1  1  -0.00000000  -0.00000000  0.50000000  1
  Sb  Sb2  1  0.50000000  0.50000000  0.00000001  1
  P  P3  1  0.50000001  0.49999999  0.50000000  1
