# generated using pymatgen
data_PrSbTe
_symmetry_space_group_name_H-M   'P 1'
_cell_length_a   4.74218395
_cell_length_b   4.41546946
_cell_length_c   4.97976627
_cell_angle_alpha   90.00000012
_cell_angle_beta   89.99999999
_cell_angle_gamma   89.99999989
_symmetry_Int_Tables_number   1
_chemical_formula_structural   PrSbTe
_chemical_formula_sum   'Pr1 Sb1 Te1'
_cell_volume   104.27116859
_cell_formula_units_Z   1
loop_
 _symmetry_equiv_pos_site_id
 _symmetry_equiv_pos_as_xyz
  1  'x, y, z'
loop_
 _atom_site_type_symbol
 _atom_site_label
 _atom_site_symmetry_multiplicity
 _atom_site_fract_x
 _atom_site_fract_y
 _atom_site_fract_z
 _atom_site_occupancy
  Pr  Pr0  1  -0.00000000  -0.00000000  -0.24512851  1
  Sb  Sb1  1  0.50000000  0.50000000  0.74999630  1
  Te  Te2  1  0.00000000  0.50000000  0.25243221  1
