# generated using pymatgen
data_PrSCl
_symmetry_space_group_name_H-M   'P 1'
_cell_length_a   4.64777063
_cell_length_b   4.64776970
_cell_length_c   4.60413960
_cell_angle_alpha   89.99999579
_cell_angle_beta   90.00000855
_cell_angle_gamma   119.99999766
_symmetry_Int_Tables_number   1
_chemical_formula_structural   PrSCl
_chemical_formula_sum   'Pr1 S1 Cl1'
_cell_volume   86.13276979
_cell_formula_units_Z   1
loop_
 _symmetry_equiv_pos_site_id
 _symmetry_equiv_pos_as_xyz
  1  'x, y, z'
loop_
 _atom_site_type_symbol
 _atom_site_label
 _atom_site_symmetry_multiplicity
 _atom_site_fract_x
 _atom_site_fract_y
 _atom_site_fract_z
 _atom_site_occupancy
  Pr  Pr0  1  -0.00000001  0.00000002  -0.00000003  1
  S  S1  1  0.33333334  0.66666665  0.00000002  1
  Cl  Cl2  1  0.66666667  0.33333334  0.50000002  1
