# generated using pymatgen
data_PtRhF2
_symmetry_space_group_name_H-M   'P 1'
_cell_length_a   2.75432331
_cell_length_b   3.10996142
_cell_length_c   7.06469033
_cell_angle_alpha   80.60734181
_cell_angle_beta   89.96745095
_cell_angle_gamma   89.88756236
_symmetry_Int_Tables_number   1
_chemical_formula_structural   PtRhF2
_chemical_formula_sum   'Pt1 Rh1 F2'
_cell_volume   59.70356509
_cell_formula_units_Z   1
loop_
 _symmetry_equiv_pos_site_id
 _symmetry_equiv_pos_as_xyz
  1  'x, y, z'
loop_
 _atom_site_type_symbol
 _atom_site_label
 _atom_site_symmetry_multiplicity
 _atom_site_fract_x
 _atom_site_fract_y
 _atom_site_fract_z
 _atom_site_occupancy
  Pt  Pt0  1  0.49979499  0.58150087  0.58923286  1
  Rh  Rh1  1  0.00080895  0.05590802  -0.16885430  1
  F  F2  1  -0.00007778  -0.12040628  0.37450839  1
  F  F3  1  -0.00052616  0.48299739  0.02141305  1
