# generated using pymatgen
data_RbAgTe
_symmetry_space_group_name_H-M   'P 1'
_cell_length_a   4.83461880
_cell_length_b   4.83461883
_cell_length_c   5.32802447
_cell_angle_alpha   90.00000314
_cell_angle_beta   89.99999955
_cell_angle_gamma   120.00000805
_symmetry_Int_Tables_number   1
_chemical_formula_structural   RbAgTe
_chemical_formula_sum   'Rb1 Ag1 Te1'
_cell_volume   107.85028150
_cell_formula_units_Z   1
loop_
 _symmetry_equiv_pos_site_id
 _symmetry_equiv_pos_as_xyz
  1  'x, y, z'
loop_
 _atom_site_type_symbol
 _atom_site_label
 _atom_site_symmetry_multiplicity
 _atom_site_fract_x
 _atom_site_fract_y
 _atom_site_fract_z
 _atom_site_occupancy
  Rb  Rb0  1  0.33333336  0.66666670  -0.00000004  1
  Ag  Ag1  1  -0.00000001  -0.00000002  0.50000002  1
  Te  Te2  1  0.66666665  0.33333333  0.50000003  1
