# generated using pymatgen
data_RbAsF2
_symmetry_space_group_name_H-M   'P 1'
_cell_length_a   3.32485505
_cell_length_b   4.55697943
_cell_length_c   5.01149498
_cell_angle_alpha   90.00003824
_cell_angle_beta   89.99998527
_cell_angle_gamma   89.99999856
_symmetry_Int_Tables_number   1
_chemical_formula_structural   RbAsF2
_chemical_formula_sum   'Rb1 As1 F2'
_cell_volume   75.93064420
_cell_formula_units_Z   1
loop_
 _symmetry_equiv_pos_site_id
 _symmetry_equiv_pos_as_xyz
  1  'x, y, z'
loop_
 _atom_site_type_symbol
 _atom_site_label
 _atom_site_symmetry_multiplicity
 _atom_site_fract_x
 _atom_site_fract_y
 _atom_site_fract_z
 _atom_site_occupancy
  Rb  Rb0  1  0.49999979  0.49999977  0.47998294  1
  As  As1  1  0.00000006  -0.00000047  -0.02804386  1
  F  F2  1  0.00000022  -0.00000029  0.38509281  1
  F  F3  1  -0.00000008  0.50000098  -0.01973189  1
