# generated using pymatgen
data_RbErBr2
_symmetry_space_group_name_H-M   'P 1'
_cell_length_a   7.94145076
_cell_length_b   3.82869554
_cell_length_c   9.47201822
_cell_angle_alpha   90.25748232
_cell_angle_beta   122.01002495
_cell_angle_gamma   90.01176260
_symmetry_Int_Tables_number   1
_chemical_formula_structural   RbErBr2
_chemical_formula_sum   'Rb1 Er1 Br2'
_cell_volume   244.20794499
_cell_formula_units_Z   1
loop_
 _symmetry_equiv_pos_site_id
 _symmetry_equiv_pos_as_xyz
  1  'x, y, z'
loop_
 _atom_site_type_symbol
 _atom_site_label
 _atom_site_symmetry_multiplicity
 _atom_site_fract_x
 _atom_site_fract_y
 _atom_site_fract_z
 _atom_site_occupancy
  Rb  Rb0  1  0.44915062  0.49758384  0.11496322  1
  Er  Er1  1  0.03055558  0.00000068  0.41987078  1
  Br  Br2  1  0.13498053  0.50277253  0.68158737  1
  Br  Br3  1  0.27631327  -0.00035705  0.31087864  1
