# generated using pymatgen
data_RbFeI2
_symmetry_space_group_name_H-M   'P 1'
_cell_length_a   5.31440245
_cell_length_b   4.81396755
_cell_length_c   7.13860116
_cell_angle_alpha   89.95516781
_cell_angle_beta   73.83604258
_cell_angle_gamma   89.98759414
_symmetry_Int_Tables_number   1
_chemical_formula_structural   RbFeI2
_chemical_formula_sum   'Rb1 Fe1 I2'
_cell_volume   175.40983275
_cell_formula_units_Z   1
loop_
 _symmetry_equiv_pos_site_id
 _symmetry_equiv_pos_as_xyz
  1  'x, y, z'
loop_
 _atom_site_type_symbol
 _atom_site_label
 _atom_site_symmetry_multiplicity
 _atom_site_fract_x
 _atom_site_fract_y
 _atom_site_fract_z
 _atom_site_occupancy
  Rb  Rb0  1  -0.14827894  -0.00003221  0.09622204  1
  Fe  Fe1  1  0.42051851  0.49995357  0.55892284  1
  I  I2  1  0.30518284  0.50001719  0.22466025  1
  I  I3  1  0.51361092  0.00006146  0.66789487  1
