# generated using pymatgen
data_RbLuS2
_symmetry_space_group_name_H-M   'P 1'
_cell_length_a   4.23778660
_cell_length_b   4.23778651
_cell_length_c   5.74419245
_cell_angle_alpha   90.00000184
_cell_angle_beta   89.99999625
_cell_angle_gamma   89.99999919
_symmetry_Int_Tables_number   1
_chemical_formula_structural   RbLuS2
_chemical_formula_sum   'Rb1 Lu1 S2'
_cell_volume   103.15900376
_cell_formula_units_Z   1
loop_
 _symmetry_equiv_pos_site_id
 _symmetry_equiv_pos_as_xyz
  1  'x, y, z'
loop_
 _atom_site_type_symbol
 _atom_site_label
 _atom_site_symmetry_multiplicity
 _atom_site_fract_x
 _atom_site_fract_y
 _atom_site_fract_z
 _atom_site_occupancy
  Rb  Rb0  1  0.50000002  0.50000002  0.50000003  1
  Lu  Lu1  1  0.00000005  0.00000001  -0.00000010  1
  S  S2  1  -0.00000002  0.00000001  0.50000005  1
  S  S3  1  0.49999995  0.49999996  0.00000002  1
