# generated using pymatgen
data_RbYBr
_symmetry_space_group_name_H-M   'P 1'
_cell_length_a   6.42706958
_cell_length_b   6.42706957
_cell_length_c   3.69484296
_cell_angle_alpha   90.00000043
_cell_angle_beta   90.00000025
_cell_angle_gamma   84.50526166
_symmetry_Int_Tables_number   1
_chemical_formula_structural   RbYBr
_chemical_formula_sum   'Rb1 Y1 Br1'
_cell_volume   151.92239667
_cell_formula_units_Z   1
loop_
 _symmetry_equiv_pos_site_id
 _symmetry_equiv_pos_as_xyz
  1  'x, y, z'
loop_
 _atom_site_type_symbol
 _atom_site_label
 _atom_site_symmetry_multiplicity
 _atom_site_fract_x
 _atom_site_fract_y
 _atom_site_fract_z
 _atom_site_occupancy
  Rb  Rb0  1  -0.02735496  -0.02735496  0.00000000  1
  Y  Y1  1  0.51248378  0.51248378  0.00000000  1
  Br  Br2  1  0.28357119  0.28357119  0.49999999  1
