# generated using pymatgen
data_ReHgO
_symmetry_space_group_name_H-M   'P 1'
_cell_length_a   3.72676275
_cell_length_b   3.85675324
_cell_length_c   3.85675364
_cell_angle_alpha   89.99999837
_cell_angle_beta   89.99999683
_cell_angle_gamma   90.00000302
_symmetry_Int_Tables_number   1
_chemical_formula_structural   ReHgO
_chemical_formula_sum   'Re1 Hg1 O1'
_cell_volume   55.43390804
_cell_formula_units_Z   1
loop_
 _symmetry_equiv_pos_site_id
 _symmetry_equiv_pos_as_xyz
  1  'x, y, z'
loop_
 _atom_site_type_symbol
 _atom_site_label
 _atom_site_symmetry_multiplicity
 _atom_site_fract_x
 _atom_site_fract_y
 _atom_site_fract_z
 _atom_site_occupancy
  Re  Re0  1  0.49999996  0.49999998  0.50000006  1
  Hg  Hg1  1  -0.00000001  0.00000000  -0.00000003  1
  O  O2  1  0.00000005  0.50000002  0.49999997  1
