# generated using pymatgen
data_ReNiP2
_symmetry_space_group_name_H-M   'P 1'
_cell_length_a   3.19117785
_cell_length_b   4.37914905
_cell_length_c   4.38933983
_cell_angle_alpha   89.99999860
_cell_angle_beta   111.34038722
_cell_angle_gamma   89.99999903
_symmetry_Int_Tables_number   1
_chemical_formula_structural   ReNiP2
_chemical_formula_sum   'Re1 Ni1 P2'
_cell_volume   57.13371559
_cell_formula_units_Z   1
loop_
 _symmetry_equiv_pos_site_id
 _symmetry_equiv_pos_as_xyz
  1  'x, y, z'
loop_
 _atom_site_type_symbol
 _atom_site_label
 _atom_site_symmetry_multiplicity
 _atom_site_fract_x
 _atom_site_fract_y
 _atom_site_fract_z
 _atom_site_occupancy
  Re  Re0  1  0.41587236  -0.00000001  0.45614075  1
  Ni  Ni1  1  0.83605207  0.50000000  0.29663201  1
  P  P2  1  0.53646525  0.50000000  0.69856352  1
  P  P3  1  0.71151033  0.00000001  0.04866372  1
