# generated using pymatgen
data_RePbF2
_symmetry_space_group_name_H-M   'P 1'
_cell_length_a   4.03346781
_cell_length_b   2.79186507
_cell_length_c   6.26555329
_cell_angle_alpha   90.00195330
_cell_angle_beta   89.99975547
_cell_angle_gamma   89.99935484
_symmetry_Int_Tables_number   1
_chemical_formula_structural   RePbF2
_chemical_formula_sum   'Re1 Pb1 F2'
_cell_volume   70.55575580
_cell_formula_units_Z   1
loop_
 _symmetry_equiv_pos_site_id
 _symmetry_equiv_pos_as_xyz
  1  'x, y, z'
loop_
 _atom_site_type_symbol
 _atom_site_label
 _atom_site_symmetry_multiplicity
 _atom_site_fract_x
 _atom_site_fract_y
 _atom_site_fract_z
 _atom_site_occupancy
  Re  Re0  1  0.49999665  0.49999811  -0.05787920  1
  Pb  Pb1  1  -0.00000009  0.00000101  0.59295882  1
  F  F2  1  -0.00000152  0.50000057  0.01607138  1
  F  F3  1  0.50000496  0.50000031  0.25324900  1
