# generated using pymatgen
data_ReSnF2
_symmetry_space_group_name_H-M   'P 1'
_cell_length_a   2.73375886
_cell_length_b   4.01038891
_cell_length_c   6.20119237
_cell_angle_alpha   89.99993522
_cell_angle_beta   89.99890637
_cell_angle_gamma   90.00484196
_symmetry_Int_Tables_number   1
_chemical_formula_structural   ReSnF2
_chemical_formula_sum   'Re1 Sn1 F2'
_cell_volume   67.98637688
_cell_formula_units_Z   1
loop_
 _symmetry_equiv_pos_site_id
 _symmetry_equiv_pos_as_xyz
  1  'x, y, z'
loop_
 _atom_site_type_symbol
 _atom_site_label
 _atom_site_symmetry_multiplicity
 _atom_site_fract_x
 _atom_site_fract_y
 _atom_site_fract_z
 _atom_site_occupancy
  Re  Re0  1  0.00000077  -0.00000010  -0.06389148  1
  Sn  Sn1  1  0.49999903  0.50000092  0.60635959  1
  F  F2  1  0.00000028  -0.00000064  0.24931466  1
  F  F3  1  -0.00000008  0.49999982  0.01851723  1
