# generated using pymatgen
data_RhAuI2
_symmetry_space_group_name_H-M   'P 1'
_cell_length_a   4.71674317
_cell_length_b   3.93525903
_cell_length_c   7.62676893
_cell_angle_alpha   89.98958334
_cell_angle_beta   109.72870969
_cell_angle_gamma   90.01274116
_symmetry_Int_Tables_number   1
_chemical_formula_structural   RhAuI2
_chemical_formula_sum   'Rh1 Au1 I2'
_cell_volume   133.25542115
_cell_formula_units_Z   1
loop_
 _symmetry_equiv_pos_site_id
 _symmetry_equiv_pos_as_xyz
  1  'x, y, z'
loop_
 _atom_site_type_symbol
 _atom_site_label
 _atom_site_symmetry_multiplicity
 _atom_site_fract_x
 _atom_site_fract_y
 _atom_site_fract_z
 _atom_site_occupancy
  Rh  Rh0  1  0.55002298  0.49996765  0.40547328  1
  Au  Au1  1  -0.08146430  0.00001199  0.56629532  1
  I  I2  1  0.36207373  0.50006251  0.68126168  1
  I  I3  1  0.25736758  -0.00004215  0.18426972  1
