# generated using pymatgen
data_RhSCl
_symmetry_space_group_name_H-M   'P 1'
_cell_length_a   3.41527663
_cell_length_b   3.41527599
_cell_length_c   6.43163738
_cell_angle_alpha   90.00003229
_cell_angle_beta   89.99997495
_cell_angle_gamma   120.00007139
_symmetry_Int_Tables_number   1
_chemical_formula_structural   RhSCl
_chemical_formula_sum   'Rh1 S1 Cl1'
_cell_volume   64.96860790
_cell_formula_units_Z   1
loop_
 _symmetry_equiv_pos_site_id
 _symmetry_equiv_pos_as_xyz
  1  'x, y, z'
loop_
 _atom_site_type_symbol
 _atom_site_label
 _atom_site_symmetry_multiplicity
 _atom_site_fract_x
 _atom_site_fract_y
 _atom_site_fract_z
 _atom_site_occupancy
  Rh  Rh0  1  0.33333346  0.66666651  0.35390873  1
  S  S1  1  0.66666659  0.33333339  0.53778658  1
  Cl  Cl2  1  -0.00000006  0.00000010  0.10830468  1
