# generated using pymatgen
data_RuPbF2
_symmetry_space_group_name_H-M   'P 1'
_cell_length_a   2.97070314
_cell_length_b   3.99179075
_cell_length_c   5.68881962
_cell_angle_alpha   89.99978696
_cell_angle_beta   89.99993250
_cell_angle_gamma   90.00006081
_symmetry_Int_Tables_number   1
_chemical_formula_structural   RuPbF2
_chemical_formula_sum   'Ru1 Pb1 F2'
_cell_volume   67.46044260
_cell_formula_units_Z   1
loop_
 _symmetry_equiv_pos_site_id
 _symmetry_equiv_pos_as_xyz
  1  'x, y, z'
loop_
 _atom_site_type_symbol
 _atom_site_label
 _atom_site_symmetry_multiplicity
 _atom_site_fract_x
 _atom_site_fract_y
 _atom_site_fract_z
 _atom_site_occupancy
  Ru  Ru0  1  -0.00000009  -0.00000469  -0.06738661  1
  Pb  Pb1  1  0.50000007  0.49999867  0.58439343  1
  F  F2  1  0.00000058  0.00000092  0.29076895  1
  F  F3  1  -0.00000056  0.50000510  0.00752423  1
