# generated using pymatgen
data_SbAuF
_symmetry_space_group_name_H-M   'P 1'
_cell_length_a   3.83200179
_cell_length_b   2.92520414
_cell_length_c   5.64805988
_cell_angle_alpha   90.00007270
_cell_angle_beta   89.99997114
_cell_angle_gamma   89.99998782
_symmetry_Int_Tables_number   1
_chemical_formula_structural   SbAuF
_chemical_formula_sum   'Sb1 Au1 F1'
_cell_volume   63.31129182
_cell_formula_units_Z   1
loop_
 _symmetry_equiv_pos_site_id
 _symmetry_equiv_pos_as_xyz
  1  'x, y, z'
loop_
 _atom_site_type_symbol
 _atom_site_label
 _atom_site_symmetry_multiplicity
 _atom_site_fract_x
 _atom_site_fract_y
 _atom_site_fract_z
 _atom_site_occupancy
  Sb  Sb0  1  0.50000044  0.49999995  0.56143180  1
  Au  Au1  1  -0.00000023  0.00000031  -0.13339447  1
  F  F2  1  -0.00000021  0.49999974  0.32226267  1
