# generated using pymatgen
data_SbAuBr2
_symmetry_space_group_name_H-M   'P 1'
_cell_length_a   6.28539831
_cell_length_b   3.93318416
_cell_length_c   6.79605288
_cell_angle_alpha   90.01236598
_cell_angle_beta   71.99791894
_cell_angle_gamma   90.00295766
_symmetry_Int_Tables_number   1
_chemical_formula_structural   SbAuBr2
_chemical_formula_sum   'Sb1 Au1 Br2'
_cell_volume   159.78463854
_cell_formula_units_Z   1
loop_
 _symmetry_equiv_pos_site_id
 _symmetry_equiv_pos_as_xyz
  1  'x, y, z'
loop_
 _atom_site_type_symbol
 _atom_site_label
 _atom_site_symmetry_multiplicity
 _atom_site_fract_x
 _atom_site_fract_y
 _atom_site_fract_z
 _atom_site_occupancy
  Sb  Sb0  1  0.03229483  0.00002970  0.33185282  1
  Au  Au1  1  0.00507663  0.49989343  0.06772740  1
  Br  Br2  1  0.45844028  0.00000510  0.21357849  1
  Br  Br3  1  -0.02011175  0.50007177  0.69954129  1
