# generated using pymatgen
data_SbHBr2
_symmetry_space_group_name_H-M   'P 1'
_cell_length_a   7.97520819
_cell_length_b   3.56364911
_cell_length_c   7.51449656
_cell_angle_alpha   89.99999796
_cell_angle_beta   143.35229157
_cell_angle_gamma   90.00000552
_symmetry_Int_Tables_number   1
_chemical_formula_structural   SbHBr2
_chemical_formula_sum   'Sb1 H1 Br2'
_cell_volume   127.47747393
_cell_formula_units_Z   1
loop_
 _symmetry_equiv_pos_site_id
 _symmetry_equiv_pos_as_xyz
  1  'x, y, z'
loop_
 _atom_site_type_symbol
 _atom_site_label
 _atom_site_symmetry_multiplicity
 _atom_site_fract_x
 _atom_site_fract_y
 _atom_site_fract_z
 _atom_site_occupancy
  Sb  Sb0  1  0.57528294  0.49999982  0.01297949  1
  H  H1  1  0.10313554  0.00000076  0.02216853  1
  Br  Br2  1  0.02395216  0.49999981  0.63448877  1
  Br  Br3  1  0.25562936  -0.00000039  0.31806321  1
