# generated using pymatgen
data_SbSe2Cl
_symmetry_space_group_name_H-M   'P 1'
_cell_length_a   5.84049325
_cell_length_b   4.11859676
_cell_length_c   5.06958504
_cell_angle_alpha   90.00019395
_cell_angle_beta   106.36886087
_cell_angle_gamma   90.00020445
_symmetry_Int_Tables_number   1
_chemical_formula_structural   SbSe2Cl
_chemical_formula_sum   'Sb1 Se2 Cl1'
_cell_volume   117.00418114
_cell_formula_units_Z   1
loop_
 _symmetry_equiv_pos_site_id
 _symmetry_equiv_pos_as_xyz
  1  'x, y, z'
loop_
 _atom_site_type_symbol
 _atom_site_label
 _atom_site_symmetry_multiplicity
 _atom_site_fract_x
 _atom_site_fract_y
 _atom_site_fract_z
 _atom_site_occupancy
  Sb  Sb0  1  0.37603937  0.50000138  0.17813850  1
  Se  Se1  1  0.59310595  0.49999724  0.81836165  1
  Se  Se2  1  0.03943523  0.00000040  0.00679083  1
  Cl  Cl3  1  -0.00858055  0.00000097  0.49670903  1
