# generated using pymatgen
data_SbSF
_symmetry_space_group_name_H-M   'P 1'
_cell_length_a   4.04737187
_cell_length_b   4.04737204
_cell_length_c   3.73039300
_cell_angle_alpha   89.99999871
_cell_angle_beta   90.00000177
_cell_angle_gamma   120.00005470
_symmetry_Int_Tables_number   1
_chemical_formula_structural   SbSF
_chemical_formula_sum   'Sb1 S1 F1'
_cell_volume   52.92138670
_cell_formula_units_Z   1
loop_
 _symmetry_equiv_pos_site_id
 _symmetry_equiv_pos_as_xyz
  1  'x, y, z'
loop_
 _atom_site_type_symbol
 _atom_site_label
 _atom_site_symmetry_multiplicity
 _atom_site_fract_x
 _atom_site_fract_y
 _atom_site_fract_z
 _atom_site_occupancy
  Sb  Sb0  1  -0.00000001  0.00000002  0.00000000  1
  S  S1  1  0.33333333  0.66666665  0.50000000  1
  F  F2  1  0.66666668  0.33333333  0.00000000  1
