# generated using pymatgen
data_Sc2TeC
_symmetry_space_group_name_H-M   'P 1'
_cell_length_a   3.55044584
_cell_length_b   3.55044673
_cell_length_c   7.31570101
_cell_angle_alpha   89.99991349
_cell_angle_beta   90.00004964
_cell_angle_gamma   120.00000849
_symmetry_Int_Tables_number   1
_chemical_formula_structural   Sc2TeC
_chemical_formula_sum   'Sc2 Te1 C1'
_cell_volume   79.86425327
_cell_formula_units_Z   1
loop_
 _symmetry_equiv_pos_site_id
 _symmetry_equiv_pos_as_xyz
  1  'x, y, z'
loop_
 _atom_site_type_symbol
 _atom_site_label
 _atom_site_symmetry_multiplicity
 _atom_site_fract_x
 _atom_site_fract_y
 _atom_site_fract_z
 _atom_site_occupancy
  Sc  Sc0  1  0.33333330  0.66666724  0.84991532  1
  Sc  Sc1  1  0.66666658  0.33333308  0.16636876  1
  Te  Te2  1  0.33333345  0.66666607  0.45305814  1
  C  C3  1  0.00000001  0.00000027  -0.01034222  1
