# generated using pymatgen
data_ScHF2
_symmetry_space_group_name_H-M   'P 1'
_cell_length_a   3.12486011
_cell_length_b   3.12486602
_cell_length_c   4.16014753
_cell_angle_alpha   89.99491367
_cell_angle_beta   89.99577560
_cell_angle_gamma   89.99938603
_symmetry_Int_Tables_number   1
_chemical_formula_structural   ScHF2
_chemical_formula_sum   'Sc1 H1 F2'
_cell_volume   40.62288013
_cell_formula_units_Z   1
loop_
 _symmetry_equiv_pos_site_id
 _symmetry_equiv_pos_as_xyz
  1  'x, y, z'
loop_
 _atom_site_type_symbol
 _atom_site_label
 _atom_site_symmetry_multiplicity
 _atom_site_fract_x
 _atom_site_fract_y
 _atom_site_fract_z
 _atom_site_occupancy
  Sc  Sc0  1  0.50000692  0.50002019  -0.11295776  1
  H  H1  1  -0.00001892  -0.00003693  0.64752916  1
  F  F2  1  0.00001641  0.00002321  0.10990256  1
  F  F3  1  0.49999560  0.49999353  0.39622604  1
