# generated using pymatgen
data_ScSbS2
_symmetry_space_group_name_H-M   'P 1'
_cell_length_a   5.92462709
_cell_length_b   3.73851901
_cell_length_c   5.95391400
_cell_angle_alpha   89.86832747
_cell_angle_beta   133.23733841
_cell_angle_gamma   90.10679004
_symmetry_Int_Tables_number   1
_chemical_formula_structural   ScSbS2
_chemical_formula_sum   'Sc1 Sb1 S2'
_cell_volume   96.07378035
_cell_formula_units_Z   1
loop_
 _symmetry_equiv_pos_site_id
 _symmetry_equiv_pos_as_xyz
  1  'x, y, z'
loop_
 _atom_site_type_symbol
 _atom_site_label
 _atom_site_symmetry_multiplicity
 _atom_site_fract_x
 _atom_site_fract_y
 _atom_site_fract_z
 _atom_site_occupancy
  Sc  Sc0  1  0.59931808  0.00087116  0.15193470  1
  Sb  Sb1  1  -0.16647787  0.50260234  -0.07240196  1
  S  S2  1  0.14949788  -0.00334095  0.60403060  1
  S  S3  1  0.44166191  0.49986746  0.32013666  1
