# generated using pymatgen
data_ScTlCl
_symmetry_space_group_name_H-M   'P 1'
_cell_length_a   6.71850142
_cell_length_b   6.72016122
_cell_length_c   3.35569546
_cell_angle_alpha   75.53191659
_cell_angle_beta   104.42257043
_cell_angle_gamma   52.37888502
_symmetry_Int_Tables_number   1
_chemical_formula_structural   ScTlCl
_chemical_formula_sum   'Sc1 Tl1 Cl1'
_cell_volume   98.99573146
_cell_formula_units_Z   1
loop_
 _symmetry_equiv_pos_site_id
 _symmetry_equiv_pos_as_xyz
  1  'x, y, z'
loop_
 _atom_site_type_symbol
 _atom_site_label
 _atom_site_symmetry_multiplicity
 _atom_site_fract_x
 _atom_site_fract_y
 _atom_site_fract_z
 _atom_site_occupancy
  Sc  Sc0  1  0.04809606  0.04821670  0.49993894  1
  Tl  Tl1  1  0.47598134  0.47611537  0.50015473  1
  Cl  Cl2  1  0.20462260  0.20436793  -0.00009367  1
