# generated using pymatgen
data_SiIrF
_symmetry_space_group_name_H-M   'P 1'
_cell_length_a   3.35411826
_cell_length_b   3.36199147
_cell_length_c   5.48431093
_cell_angle_alpha   90.00638600
_cell_angle_beta   89.94328624
_cell_angle_gamma   120.10470990
_symmetry_Int_Tables_number   1
_chemical_formula_structural   SiIrF
_chemical_formula_sum   'Si1 Ir1 F1'
_cell_volume   53.50177844
_cell_formula_units_Z   1
loop_
 _symmetry_equiv_pos_site_id
 _symmetry_equiv_pos_as_xyz
  1  'x, y, z'
loop_
 _atom_site_type_symbol
 _atom_site_label
 _atom_site_symmetry_multiplicity
 _atom_site_fract_x
 _atom_site_fract_y
 _atom_site_fract_z
 _atom_site_occupancy
  Si  Si0  1  0.33293109  0.66651493  0.61655577  1
  Ir  Ir1  1  0.00033158  0.00013038  -0.17041510  1
  F  F2  1  0.33340400  0.66668803  0.31715934  1
