# generated using pymatgen
data_SiOsRu
_symmetry_space_group_name_H-M   'P 1'
_cell_length_a   4.01075426
_cell_length_b   3.99627159
_cell_length_c   2.83638335
_cell_angle_alpha   89.99999951
_cell_angle_beta   89.99999966
_cell_angle_gamma   89.99999914
_symmetry_Int_Tables_number   1
_chemical_formula_structural   SiOsRu
_chemical_formula_sum   'Si1 Os1 Ru1'
_cell_volume   45.46173189
_cell_formula_units_Z   1
loop_
 _symmetry_equiv_pos_site_id
 _symmetry_equiv_pos_as_xyz
  1  'x, y, z'
loop_
 _atom_site_type_symbol
 _atom_site_label
 _atom_site_symmetry_multiplicity
 _atom_site_fract_x
 _atom_site_fract_y
 _atom_site_fract_z
 _atom_site_occupancy
  Si  Si0  1  0.00000000  0.50000000  0.00000000  1
  Os  Os1  1  0.50000000  0.49999999  0.50000000  1
  Ru  Ru2  1  -0.00000000  0.00000000  0.50000000  1
