# generated using pymatgen
data_SiSnPt
_symmetry_space_group_name_H-M   'P 1'
_cell_length_a   4.13813427
_cell_length_b   4.13813433
_cell_length_c   4.10737946
_cell_angle_alpha   89.99998874
_cell_angle_beta   90.00000208
_cell_angle_gamma   119.99999175
_symmetry_Int_Tables_number   1
_chemical_formula_structural   SiSnPt
_chemical_formula_sum   'Si1 Sn1 Pt1'
_cell_volume   60.91225212
_cell_formula_units_Z   1
loop_
 _symmetry_equiv_pos_site_id
 _symmetry_equiv_pos_as_xyz
  1  'x, y, z'
loop_
 _atom_site_type_symbol
 _atom_site_label
 _atom_site_symmetry_multiplicity
 _atom_site_fract_x
 _atom_site_fract_y
 _atom_site_fract_z
 _atom_site_occupancy
  Si  Si0  1  0.66666662  0.33333330  0.00000006  1
  Sn  Sn1  1  0.33333328  0.66666671  0.49999999  1
  Pt  Pt2  1  0.00000010  -0.00000001  -0.00000005  1
