# generated using pymatgen
data_SiTe2Rh
_symmetry_space_group_name_H-M   'P 1'
_cell_length_a   4.01602160
_cell_length_b   3.91822707
_cell_length_c   6.80444663
_cell_angle_alpha   90.00479834
_cell_angle_beta   126.11918920
_cell_angle_gamma   89.99173423
_symmetry_Int_Tables_number   1
_chemical_formula_structural   SiTe2Rh
_chemical_formula_sum   'Si1 Te2 Rh1'
_cell_volume   86.49246395
_cell_formula_units_Z   1
loop_
 _symmetry_equiv_pos_site_id
 _symmetry_equiv_pos_as_xyz
  1  'x, y, z'
loop_
 _atom_site_type_symbol
 _atom_site_label
 _atom_site_symmetry_multiplicity
 _atom_site_fract_x
 _atom_site_fract_y
 _atom_site_fract_z
 _atom_site_occupancy
  Si  Si0  1  -0.14499942  0.49998240  -0.06335056  1
  Te  Te1  1  0.40798834  0.50001701  0.43663010  1
  Te  Te2  1  0.39733243  -0.00001116  0.93695797  1
  Rh  Rh3  1  -0.09952135  0.00001175  0.43726249  1
