# generated using pymatgen
data_SmBrF
_symmetry_space_group_name_H-M   'P 1'
_cell_length_a   4.31882351
_cell_length_b   4.31882337
_cell_length_c   3.75169338
_cell_angle_alpha   89.99989085
_cell_angle_beta   90.00010183
_cell_angle_gamma   120.00015466
_symmetry_Int_Tables_number   1
_chemical_formula_structural   SmBrF
_chemical_formula_sum   'Sm1 Br1 F1'
_cell_volume   60.60217226
_cell_formula_units_Z   1
loop_
 _symmetry_equiv_pos_site_id
 _symmetry_equiv_pos_as_xyz
  1  'x, y, z'
loop_
 _atom_site_type_symbol
 _atom_site_label
 _atom_site_symmetry_multiplicity
 _atom_site_fract_x
 _atom_site_fract_y
 _atom_site_fract_z
 _atom_site_occupancy
  Sm  Sm0  1  0.33333482  0.66666656  0.06587893  1
  Br  Br1  1  -0.00000269  -0.00000005  0.56368283  1
  F  F2  1  0.66666788  0.33333349  0.06373823  1
