# generated using pymatgen
data_SmErSb2
_symmetry_space_group_name_H-M   'P 1'
_cell_length_a   4.41185136
_cell_length_b   4.41185132
_cell_length_c   6.23750866
_cell_angle_alpha   89.99999118
_cell_angle_beta   89.99999354
_cell_angle_gamma   89.99998026
_symmetry_Int_Tables_number   1
_chemical_formula_structural   SmErSb2
_chemical_formula_sum   'Sm1 Er1 Sb2'
_cell_volume   121.40956470
_cell_formula_units_Z   1
loop_
 _symmetry_equiv_pos_site_id
 _symmetry_equiv_pos_as_xyz
  1  'x, y, z'
loop_
 _atom_site_type_symbol
 _atom_site_label
 _atom_site_symmetry_multiplicity
 _atom_site_fract_x
 _atom_site_fract_y
 _atom_site_fract_z
 _atom_site_occupancy
  Sm  Sm0  1  0.50000010  0.50000007  -0.00000030  1
  Er  Er1  1  -0.00000027  -0.00000024  0.50000095  1
  Sb  Sb2  1  0.00000008  0.00000007  -0.00000034  1
  Sb  Sb3  1  0.50000009  0.50000010  0.49999969  1
