# generated using pymatgen
data_SmFeP
_symmetry_space_group_name_H-M   'P 1'
_cell_length_a   3.87097472
_cell_length_b   3.87147817
_cell_length_c   4.16184953
_cell_angle_alpha   89.99754960
_cell_angle_beta   90.00513300
_cell_angle_gamma   120.01901038
_symmetry_Int_Tables_number   1
_chemical_formula_structural   SmFeP
_chemical_formula_sum   'Sm1 Fe1 P1'
_cell_volume   54.00462178
_cell_formula_units_Z   1
loop_
 _symmetry_equiv_pos_site_id
 _symmetry_equiv_pos_as_xyz
  1  'x, y, z'
loop_
 _atom_site_type_symbol
 _atom_site_label
 _atom_site_symmetry_multiplicity
 _atom_site_fract_x
 _atom_site_fract_y
 _atom_site_fract_z
 _atom_site_occupancy
  Sm  Sm0  1  0.33325217  0.66668755  0.56393913  1
  Fe  Fe1  1  0.66676664  0.33331190  0.05704614  1
  P  P2  1  -0.00001880  0.00000055  0.06231473  1
