# generated using pymatgen
data_SmPbI2
_symmetry_space_group_name_H-M   'P 1'
_cell_length_a   5.30522947
_cell_length_b   3.99985570
_cell_length_c   9.71673511
_cell_angle_alpha   90.00055662
_cell_angle_beta   108.66763478
_cell_angle_gamma   89.99844658
_symmetry_Int_Tables_number   1
_chemical_formula_structural   SmPbI2
_chemical_formula_sum   'Sm1 Pb1 I2'
_cell_volume   195.34316624
_cell_formula_units_Z   1
loop_
 _symmetry_equiv_pos_site_id
 _symmetry_equiv_pos_as_xyz
  1  'x, y, z'
loop_
 _atom_site_type_symbol
 _atom_site_label
 _atom_site_symmetry_multiplicity
 _atom_site_fract_x
 _atom_site_fract_y
 _atom_site_fract_z
 _atom_site_occupancy
  Sm  Sm0  1  0.37911011  0.50000291  -0.03363439  1
  Pb  Pb1  1  -0.08777153  -0.00000146  0.02477711  1
  I  I2  1  0.35985394  0.49999806  0.27497829  1
  I  I3  1  0.36680748  0.00000049  0.71757899  1
