# generated using pymatgen
data_SmSbH
_symmetry_space_group_name_H-M   'P 1'
_cell_length_a   3.86261836
_cell_length_b   3.86261870
_cell_length_c   4.76086626
_cell_angle_alpha   89.99999942
_cell_angle_beta   89.99999893
_cell_angle_gamma   119.99999945
_symmetry_Int_Tables_number   1
_chemical_formula_structural   SmSbH
_chemical_formula_sum   'Sm1 Sb1 H1'
_cell_volume   61.51489049
_cell_formula_units_Z   1
loop_
 _symmetry_equiv_pos_site_id
 _symmetry_equiv_pos_as_xyz
  1  'x, y, z'
loop_
 _atom_site_type_symbol
 _atom_site_label
 _atom_site_symmetry_multiplicity
 _atom_site_fract_x
 _atom_site_fract_y
 _atom_site_fract_z
 _atom_site_occupancy
  Sm  Sm0  1  -0.00000000  -0.00000000  -0.00000000  1
  Sb  Sb1  1  0.33333333  0.66666666  0.50000000  1
  H  H2  1  0.66666667  0.33333334  0.00000001  1
