# generated using pymatgen
data_SmSI
_symmetry_space_group_name_H-M   'P 1'
_cell_length_a   4.62882586
_cell_length_b   4.62882424
_cell_length_c   5.09148926
_cell_angle_alpha   89.99999452
_cell_angle_beta   89.99998915
_cell_angle_gamma   120.00000470
_symmetry_Int_Tables_number   1
_chemical_formula_structural   SmSI
_chemical_formula_sum   'Sm1 S1 I1'
_cell_volume   94.47501644
_cell_formula_units_Z   1
loop_
 _symmetry_equiv_pos_site_id
 _symmetry_equiv_pos_as_xyz
  1  'x, y, z'
loop_
 _atom_site_type_symbol
 _atom_site_label
 _atom_site_symmetry_multiplicity
 _atom_site_fract_x
 _atom_site_fract_y
 _atom_site_fract_z
 _atom_site_occupancy
  Sm  Sm0  1  -0.00000003  0.00000001  -0.00000002  1
  S  S1  1  0.33333340  0.66666667  -0.00000001  1
  I  I2  1  0.66666663  0.33333332  0.50000003  1
