# generated using pymatgen
data_SmTeS2
_symmetry_space_group_name_H-M   'P 1'
_cell_length_a   3.84964004
_cell_length_b   3.92377944
_cell_length_c   7.29460259
_cell_angle_alpha   91.72475275
_cell_angle_beta   87.96860506
_cell_angle_gamma   90.16913043
_symmetry_Int_Tables_number   1
_chemical_formula_structural   SmTeS2
_chemical_formula_sum   'Sm1 Te1 S2'
_cell_volume   110.06665163
_cell_formula_units_Z   1
loop_
 _symmetry_equiv_pos_site_id
 _symmetry_equiv_pos_as_xyz
  1  'x, y, z'
loop_
 _atom_site_type_symbol
 _atom_site_label
 _atom_site_symmetry_multiplicity
 _atom_site_fract_x
 _atom_site_fract_y
 _atom_site_fract_z
 _atom_site_occupancy
  Sm  Sm0  1  0.00200483  0.49151648  -0.14628346  1
  Te  Te1  1  -0.02795601  0.01228856  0.21108642  1
  S  S2  1  0.47487514  0.51062871  0.17243087  1
  S  S3  1  0.50907605  -0.01443374  0.74006616  1
