# generated using pymatgen
data_SmZnBr2
_symmetry_space_group_name_H-M   'P 1'
_cell_length_a   5.55824978
_cell_length_b   3.88348548
_cell_length_c   9.06888460
_cell_angle_alpha   90.00077111
_cell_angle_beta   125.21891397
_cell_angle_gamma   89.99757175
_symmetry_Int_Tables_number   1
_chemical_formula_structural   SmZnBr2
_chemical_formula_sum   'Sm1 Zn1 Br2'
_cell_volume   159.92322007
_cell_formula_units_Z   1
loop_
 _symmetry_equiv_pos_site_id
 _symmetry_equiv_pos_as_xyz
  1  'x, y, z'
loop_
 _atom_site_type_symbol
 _atom_site_label
 _atom_site_symmetry_multiplicity
 _atom_site_fract_x
 _atom_site_fract_y
 _atom_site_fract_z
 _atom_site_occupancy
  Sm  Sm0  1  0.59299127  0.49999999  0.59718806  1
  Zn  Zn1  1  -0.08592827  -0.00000438  -0.08038035  1
  Br  Br2  1  0.17997230  0.49999833  0.68807387  1
  Br  Br3  1  0.33696469  0.00000607  0.30241842  1
