# generated using pymatgen
data_SnGeCl4
_symmetry_space_group_name_H-M   'P 1'
_cell_length_a   3.77841698
_cell_length_b   7.26163705
_cell_length_c   7.43633542
_cell_angle_alpha   90.18206979
_cell_angle_beta   85.18296386
_cell_angle_gamma   97.83973745
_symmetry_Int_Tables_number   1
_chemical_formula_structural   SnGeCl4
_chemical_formula_sum   'Sn1 Ge1 Cl4'
_cell_volume   201.40638054
_cell_formula_units_Z   1
loop_
 _symmetry_equiv_pos_site_id
 _symmetry_equiv_pos_as_xyz
  1  'x, y, z'
loop_
 _atom_site_type_symbol
 _atom_site_label
 _atom_site_symmetry_multiplicity
 _atom_site_fract_x
 _atom_site_fract_y
 _atom_site_fract_z
 _atom_site_occupancy
  Sn  Sn0  1  0.01385215  0.00718530  0.01120932  1
  Ge  Ge1  1  0.41067574  0.51259876  0.50362400  1
  Cl  Cl2  1  0.05814151  0.25762621  0.63580344  1
  Cl  Cl3  1  0.41835974  0.76523866  0.14841866  1
  Cl  Cl4  1  0.54627034  0.24023925  0.15092217  1
  Cl  Cl5  1  0.03600052  0.71751181  0.64302241  1
