# generated using pymatgen
data_SnTeCl2
_symmetry_space_group_name_H-M   'P 1'
_cell_length_a   6.20364696
_cell_length_b   4.36237561
_cell_length_c   5.33901078
_cell_angle_alpha   90.00000984
_cell_angle_beta   113.45027270
_cell_angle_gamma   89.99999571
_symmetry_Int_Tables_number   1
_chemical_formula_structural   SnTeCl2
_chemical_formula_sum   'Sn1 Te1 Cl2'
_cell_volume   132.55387042
_cell_formula_units_Z   1
loop_
 _symmetry_equiv_pos_site_id
 _symmetry_equiv_pos_as_xyz
  1  'x, y, z'
loop_
 _atom_site_type_symbol
 _atom_site_label
 _atom_site_symmetry_multiplicity
 _atom_site_fract_x
 _atom_site_fract_y
 _atom_site_fract_z
 _atom_site_occupancy
  Sn  Sn0  1  0.06588268  -0.00000002  0.53419752  1
  Te  Te1  1  0.42866920  0.49999997  0.72842325  1
  Cl  Cl2  1  0.52350302  0.49999999  0.26363515  1
  Cl  Cl3  1  0.98194510  0.00000007  -0.02625592  1
