# generated using pymatgen
data_SrBeCl4
_symmetry_space_group_name_H-M   'P 1'
_cell_length_a   5.43597592
_cell_length_b   6.06331143
_cell_length_c   6.13059888
_cell_angle_alpha   113.12618461
_cell_angle_beta   100.72292756
_cell_angle_gamma   100.27661321
_symmetry_Int_Tables_number   1
_chemical_formula_structural   SrBeCl4
_chemical_formula_sum   'Sr1 Be1 Cl4'
_cell_volume   175.36868208
_cell_formula_units_Z   1
loop_
 _symmetry_equiv_pos_site_id
 _symmetry_equiv_pos_as_xyz
  1  'x, y, z'
loop_
 _atom_site_type_symbol
 _atom_site_label
 _atom_site_symmetry_multiplicity
 _atom_site_fract_x
 _atom_site_fract_y
 _atom_site_fract_z
 _atom_site_occupancy
  Sr  Sr0  1  0.50606766  0.32153251  0.31887889  1
  Be  Be1  1  0.18431402  0.73859102  0.73558277  1
  Cl  Cl2  1  -0.02476768  0.38099475  0.67199582  1
  Cl  Cl3  1  0.42925908  0.08560503  0.79125025  1
  Cl  Cl4  1  0.42135855  0.79072106  0.08816547  1
  Cl  Cl5  1  0.97126838  0.68085563  0.38362679  1
