# generated using pymatgen
data_SrICl
_symmetry_space_group_name_H-M   'P 1'
_cell_length_a   4.63494118
_cell_length_b   4.63494112
_cell_length_c   6.84108450
_cell_angle_alpha   89.99954161
_cell_angle_beta   90.00020460
_cell_angle_gamma   119.99968593
_symmetry_Int_Tables_number   1
_chemical_formula_structural   SrICl
_chemical_formula_sum   'Sr1 I1 Cl1'
_cell_volume   127.27567504
_cell_formula_units_Z   1
loop_
 _symmetry_equiv_pos_site_id
 _symmetry_equiv_pos_as_xyz
  1  'x, y, z'
loop_
 _atom_site_type_symbol
 _atom_site_label
 _atom_site_symmetry_multiplicity
 _atom_site_fract_x
 _atom_site_fract_y
 _atom_site_fract_z
 _atom_site_occupancy
  Sr  Sr0  1  0.33333335  0.66666777  0.13128615  1
  I  I1  1  0.66666707  0.33333461  0.41613832  1
  Cl  Cl2  1  -0.00000042  -0.00000238  0.95257553  1
