# generated using pymatgen
data_SrMgF
_symmetry_space_group_name_H-M   'P 1'
_cell_length_a   4.09105568
_cell_length_b   3.92081620
_cell_length_c   4.94493027
_cell_angle_alpha   90.00002795
_cell_angle_beta   89.99996618
_cell_angle_gamma   90.00003591
_symmetry_Int_Tables_number   1
_chemical_formula_structural   SrMgF
_chemical_formula_sum   'Sr1 Mg1 F1'
_cell_volume   79.31805318
_cell_formula_units_Z   1
loop_
 _symmetry_equiv_pos_site_id
 _symmetry_equiv_pos_as_xyz
  1  'x, y, z'
loop_
 _atom_site_type_symbol
 _atom_site_label
 _atom_site_symmetry_multiplicity
 _atom_site_fract_x
 _atom_site_fract_y
 _atom_site_fract_z
 _atom_site_occupancy
  Sr  Sr0  1  0.49999983  0.50000027  -0.00156675  1
  Mg  Mg1  1  0.00000022  0.00000011  0.49718112  1
  F  F2  1  -0.00000004  0.49999963  0.27508563  1
