# generated using pymatgen
data_SrPdF
_symmetry_space_group_name_H-M   'P 1'
_cell_length_a   3.54297623
_cell_length_b   4.00263201
_cell_length_c   5.06855300
_cell_angle_alpha   90.00000080
_cell_angle_beta   90.00000016
_cell_angle_gamma   89.99999878
_symmetry_Int_Tables_number   1
_chemical_formula_structural   SrPdF
_chemical_formula_sum   'Sr1 Pd1 F1'
_cell_volume   71.87831621
_cell_formula_units_Z   1
loop_
 _symmetry_equiv_pos_site_id
 _symmetry_equiv_pos_as_xyz
  1  'x, y, z'
loop_
 _atom_site_type_symbol
 _atom_site_label
 _atom_site_symmetry_multiplicity
 _atom_site_fract_x
 _atom_site_fract_y
 _atom_site_fract_z
 _atom_site_occupancy
  Sr  Sr0  1  0.50000000  0.50000000  -0.06650655  1
  Pd  Pd1  1  0.00000000  -0.00000000  0.59199541  1
  F  F2  1  0.00000000  0.50000000  0.23481114  1
