# generated using pymatgen
data_SrRhI2
_symmetry_space_group_name_H-M   'P 1'
_cell_length_a   4.83207221
_cell_length_b   4.74530523
_cell_length_c   6.33390778
_cell_angle_alpha   89.99981819
_cell_angle_beta   112.38675394
_cell_angle_gamma   90.00012069
_symmetry_Int_Tables_number   1
_chemical_formula_structural   SrRhI2
_chemical_formula_sum   'Sr1 Rh1 I2'
_cell_volume   134.28862085
_cell_formula_units_Z   1
loop_
 _symmetry_equiv_pos_site_id
 _symmetry_equiv_pos_as_xyz
  1  'x, y, z'
loop_
 _atom_site_type_symbol
 _atom_site_label
 _atom_site_symmetry_multiplicity
 _atom_site_fract_x
 _atom_site_fract_y
 _atom_site_fract_z
 _atom_site_occupancy
  Sr  Sr0  1  0.71154962  0.49999972  0.09923333  1
  Rh  Rh1  1  -0.10832156  -0.00000059  0.45057014  1
  I  I2  1  0.00337426  0.50000105  0.68527745  1
  I  I3  1  0.29739768  -0.00000018  0.26261908  1
