# generated using pymatgen
data_SrTiP2
_symmetry_space_group_name_H-M   'P 1'
_cell_length_a   3.84646159
_cell_length_b   4.24404570
_cell_length_c   6.60485760
_cell_angle_alpha   90.00000004
_cell_angle_beta   107.12855558
_cell_angle_gamma   90.00000004
_symmetry_Int_Tables_number   1
_chemical_formula_structural   SrTiP2
_chemical_formula_sum   'Sr1 Ti1 P2'
_cell_volume   103.03911407
_cell_formula_units_Z   1
loop_
 _symmetry_equiv_pos_site_id
 _symmetry_equiv_pos_as_xyz
  1  'x, y, z'
loop_
 _atom_site_type_symbol
 _atom_site_label
 _atom_site_symmetry_multiplicity
 _atom_site_fract_x
 _atom_site_fract_y
 _atom_site_fract_z
 _atom_site_occupancy
  Sr  Sr0  1  0.41327628  0.00000000  0.45117087  1
  Ti  Ti1  1  0.18195059  0.50000000  0.99482924  1
  P  P2  1  0.10476634  -0.00000000  0.82526666  1
  P  P3  1  0.79990680  0.50000000  0.22873323  1
