# generated using pymatgen
data_SrVSe2
_symmetry_space_group_name_H-M   'P 1'
_cell_length_a   4.06990941
_cell_length_b   5.06701405
_cell_length_c   5.06792725
_cell_angle_alpha   89.99999546
_cell_angle_beta   89.93805323
_cell_angle_gamma   89.99997502
_symmetry_Int_Tables_number   1
_chemical_formula_structural   SrVSe2
_chemical_formula_sum   'Sr1 V1 Se2'
_cell_volume   104.51219499
_cell_formula_units_Z   1
loop_
 _symmetry_equiv_pos_site_id
 _symmetry_equiv_pos_as_xyz
  1  'x, y, z'
loop_
 _atom_site_type_symbol
 _atom_site_label
 _atom_site_symmetry_multiplicity
 _atom_site_fract_x
 _atom_site_fract_y
 _atom_site_fract_z
 _atom_site_occupancy
  Sr  Sr0  1  0.49922418  -0.00000016  0.62691187  1
  V  V1  1  0.00310914  0.49999996  0.12378121  1
  Se  Se2  1  0.00560593  -0.00000001  0.12532941  1
  Se  Se3  1  0.99196076  0.50000021  0.62397751  1
