# generated using pymatgen
data_SrZrAs2
_symmetry_space_group_name_H-M   'P 1'
_cell_length_a   3.98785993
_cell_length_b   4.35511795
_cell_length_c   7.14753845
_cell_angle_alpha   89.99999788
_cell_angle_beta   103.21580090
_cell_angle_gamma   89.99999936
_symmetry_Int_Tables_number   1
_chemical_formula_structural   SrZrAs2
_chemical_formula_sum   'Sr1 Zr1 As2'
_cell_volume   120.84797077
_cell_formula_units_Z   1
loop_
 _symmetry_equiv_pos_site_id
 _symmetry_equiv_pos_as_xyz
  1  'x, y, z'
loop_
 _atom_site_type_symbol
 _atom_site_label
 _atom_site_symmetry_multiplicity
 _atom_site_fract_x
 _atom_site_fract_y
 _atom_site_fract_z
 _atom_site_occupancy
  Sr  Sr0  1  0.40737464  -0.00000002  0.45522966  1
  Zr  Zr1  1  0.22036794  0.50000001  0.99651443  1
  As  As2  1  0.04435619  0.00000002  0.80043141  1
  As  As3  1  0.82790123  0.49999999  0.24782451  1
