# generated using pymatgen
data_TbAsH
_symmetry_space_group_name_H-M   'P 1'
_cell_length_a   3.71854270
_cell_length_b   3.71854284
_cell_length_c   4.28305802
_cell_angle_alpha   90.00000092
_cell_angle_beta   89.99999624
_cell_angle_gamma   119.99999035
_symmetry_Int_Tables_number   1
_chemical_formula_structural   TbAsH
_chemical_formula_sum   'Tb1 As1 H1'
_cell_volume   51.28970406
_cell_formula_units_Z   1
loop_
 _symmetry_equiv_pos_site_id
 _symmetry_equiv_pos_as_xyz
  1  'x, y, z'
loop_
 _atom_site_type_symbol
 _atom_site_label
 _atom_site_symmetry_multiplicity
 _atom_site_fract_x
 _atom_site_fract_y
 _atom_site_fract_z
 _atom_site_occupancy
  Tb  Tb0  1  0.00000005  0.00000003  -0.00000004  1
  As  As1  1  0.33333330  0.66666663  0.50000000  1
  H  H2  1  0.66666665  0.33333335  0.00000004  1
