# generated using pymatgen
data_TbHgP
_symmetry_space_group_name_H-M   'P 1'
_cell_length_a   3.91310950
_cell_length_b   5.17917066
_cell_length_c   3.94246965
_cell_angle_alpha   90.00000128
_cell_angle_beta   90.00000000
_cell_angle_gamma   90.00000000
_symmetry_Int_Tables_number   1
_chemical_formula_structural   TbHgP
_chemical_formula_sum   'Tb1 Hg1 P1'
_cell_volume   79.90069949
_cell_formula_units_Z   1
loop_
 _symmetry_equiv_pos_site_id
 _symmetry_equiv_pos_as_xyz
  1  'x, y, z'
loop_
 _atom_site_type_symbol
 _atom_site_label
 _atom_site_symmetry_multiplicity
 _atom_site_fract_x
 _atom_site_fract_y
 _atom_site_fract_z
 _atom_site_occupancy
  Tb  Tb0  1  0.50000000  0.50000000  0.49999998  1
  Hg  Hg1  1  -0.00000001  -0.00000000  0.50000005  1
  P  P2  1  0.00000000  0.50000001  -0.00000002  1
