# generated using pymatgen
data_TbIF
_symmetry_space_group_name_H-M   'P 1'
_cell_length_a   3.87179678
_cell_length_b   4.26292913
_cell_length_c   5.20611914
_cell_angle_alpha   89.99999432
_cell_angle_beta   89.99999735
_cell_angle_gamma   90.00000493
_symmetry_Int_Tables_number   1
_chemical_formula_structural   TbIF
_chemical_formula_sum   'Tb1 I1 F1'
_cell_volume   85.92801305
_cell_formula_units_Z   1
loop_
 _symmetry_equiv_pos_site_id
 _symmetry_equiv_pos_as_xyz
  1  'x, y, z'
loop_
 _atom_site_type_symbol
 _atom_site_label
 _atom_site_symmetry_multiplicity
 _atom_site_fract_x
 _atom_site_fract_y
 _atom_site_fract_z
 _atom_site_occupancy
  Tb  Tb0  1  0.00000003  -0.00000005  -0.00000001  1
  I  I1  1  0.49999999  0.50000002  0.50000001  1
  F  F2  1  -0.00000002  0.50000003  0.00000001  1
