# generated using pymatgen
data_TbSO
_symmetry_space_group_name_H-M   'P 1'
_cell_length_a   4.01428022
_cell_length_b   4.01427870
_cell_length_c   4.28621510
_cell_angle_alpha   90.00000469
_cell_angle_beta   89.99999324
_cell_angle_gamma   89.99997516
_symmetry_Int_Tables_number   1
_chemical_formula_structural   TbSO
_chemical_formula_sum   'Tb1 S1 O1'
_cell_volume   69.06995427
_cell_formula_units_Z   1
loop_
 _symmetry_equiv_pos_site_id
 _symmetry_equiv_pos_as_xyz
  1  'x, y, z'
loop_
 _atom_site_type_symbol
 _atom_site_label
 _atom_site_symmetry_multiplicity
 _atom_site_fract_x
 _atom_site_fract_y
 _atom_site_fract_z
 _atom_site_occupancy
  Tb  Tb0  1  -0.00000000  0.00000000  0.50000000  1
  S  S1  1  0.50000000  0.50000000  0.50000000  1
  O  O2  1  0.00000000  -0.00000000  0.00000000  1
