# generated using pymatgen
data_TbWSe2
_symmetry_space_group_name_H-M   'P 1'
_cell_length_a   3.21095360
_cell_length_b   3.21152632
_cell_length_c   15.45974923
_cell_angle_alpha   90.00353124
_cell_angle_beta   89.99928966
_cell_angle_gamma   119.99803264
_symmetry_Int_Tables_number   1
_chemical_formula_structural   TbWSe2
_chemical_formula_sum   'Tb1 W1 Se2'
_cell_volume   138.06614549
_cell_formula_units_Z   1
loop_
 _symmetry_equiv_pos_site_id
 _symmetry_equiv_pos_as_xyz
  1  'x, y, z'
loop_
 _atom_site_type_symbol
 _atom_site_label
 _atom_site_symmetry_multiplicity
 _atom_site_fract_x
 _atom_site_fract_y
 _atom_site_fract_z
 _atom_site_occupancy
  Tb  Tb0  1  0.66669046  0.33336130  0.50029475  1
  W  W1  1  0.00001957  0.00000608  -0.00685100  1
  Se  Se2  1  -0.00000614  -0.00001259  0.35896193  1
  Se  Se3  1  0.33329610  0.66664520  0.10149432  1
