# generated using pymatgen
data_Te2MoPb
_symmetry_space_group_name_H-M   'P 1'
_cell_length_a   4.23235956
_cell_length_b   4.23254735
_cell_length_c   13.72269552
_cell_angle_alpha   90.01342739
_cell_angle_beta   89.99727199
_cell_angle_gamma   119.99688630
_symmetry_Int_Tables_number   1
_chemical_formula_structural   Te2MoPb
_chemical_formula_sum   'Te2 Mo1 Pb1'
_cell_volume   212.89626969
_cell_formula_units_Z   1
loop_
 _symmetry_equiv_pos_site_id
 _symmetry_equiv_pos_as_xyz
  1  'x, y, z'
loop_
 _atom_site_type_symbol
 _atom_site_label
 _atom_site_symmetry_multiplicity
 _atom_site_fract_x
 _atom_site_fract_y
 _atom_site_fract_z
 _atom_site_occupancy
  Te  Te0  1  -0.00003842  -0.00007006  0.39814308  1
  Te  Te1  1  0.33327853  0.66659150  0.12497702  1
  Mo  Mo2  1  0.33338701  0.66666640  0.47898523  1
  Pb  Pb3  1  0.00003955  0.00014549  -0.00170533  1
