# generated using pymatgen
data_Te2PdPt
_symmetry_space_group_name_H-M   'P 1'
_cell_length_a   4.30153067
_cell_length_b   4.26714956
_cell_length_c   5.98333668
_cell_angle_alpha   90.00000010
_cell_angle_beta   89.85480045
_cell_angle_gamma   90.00000000
_symmetry_Int_Tables_number   1
_chemical_formula_structural   Te2PdPt
_chemical_formula_sum   'Te2 Pd1 Pt1'
_cell_volume   109.82543581
_cell_formula_units_Z   1
loop_
 _symmetry_equiv_pos_site_id
 _symmetry_equiv_pos_as_xyz
  1  'x, y, z'
loop_
 _atom_site_type_symbol
 _atom_site_label
 _atom_site_symmetry_multiplicity
 _atom_site_fract_x
 _atom_site_fract_y
 _atom_site_fract_z
 _atom_site_occupancy
  Te  Te0  1  0.00273952  0.50000000  0.20604407  1
  Te  Te1  1  0.49492038  -0.00000000  0.70000883  1
  Pd  Pd2  1  0.50460356  0.50000000  -0.04515711  1
  Pt  Pt3  1  -0.00496345  0.00000000  0.45380421  1
