# generated using pymatgen
data_TeAsF
_symmetry_space_group_name_H-M   'P 1'
_cell_length_a   3.98110794
_cell_length_b   3.98111164
_cell_length_c   4.95851722
_cell_angle_alpha   90.00007237
_cell_angle_beta   89.99869806
_cell_angle_gamma   89.99997884
_symmetry_Int_Tables_number   1
_chemical_formula_structural   TeAsF
_chemical_formula_sum   'Te1 As1 F1'
_cell_volume   78.58870545
_cell_formula_units_Z   1
loop_
 _symmetry_equiv_pos_site_id
 _symmetry_equiv_pos_as_xyz
  1  'x, y, z'
loop_
 _atom_site_type_symbol
 _atom_site_label
 _atom_site_symmetry_multiplicity
 _atom_site_fract_x
 _atom_site_fract_y
 _atom_site_fract_z
 _atom_site_occupancy
  Te  Te0  1  -0.00001096  0.00000228  0.05634836  1
  As  As1  1  0.50001194  0.49999771  0.16829380  1
  F  F2  1  0.49999901  0.50000000  0.53285784  1
