# generated using pymatgen
data_TiBeF2
_symmetry_space_group_name_H-M   'P 1'
_cell_length_a   3.09011606
_cell_length_b   3.09011100
_cell_length_c   4.36909832
_cell_angle_alpha   89.99999156
_cell_angle_beta   90.00000277
_cell_angle_gamma   89.99999333
_symmetry_Int_Tables_number   1
_chemical_formula_structural   TiBeF2
_chemical_formula_sum   'Ti1 Be1 F2'
_cell_volume   41.71965315
_cell_formula_units_Z   1
loop_
 _symmetry_equiv_pos_site_id
 _symmetry_equiv_pos_as_xyz
  1  'x, y, z'
loop_
 _atom_site_type_symbol
 _atom_site_label
 _atom_site_symmetry_multiplicity
 _atom_site_fract_x
 _atom_site_fract_y
 _atom_site_fract_z
 _atom_site_occupancy
  Ti  Ti0  1  0.50000003  0.49999981  -0.08999104  1
  Be  Be1  1  0.00000003  -0.00000037  0.54429382  1
  F  F2  1  -0.00000004  0.00000029  0.18454838  1
  F  F3  1  0.49999998  0.50000027  0.40184885  1
