# generated using pymatgen
data_TiHSe
_symmetry_space_group_name_H-M   'P 1'
_cell_length_a   3.44069920
_cell_length_b   3.44069922
_cell_length_c   3.57950848
_cell_angle_alpha   90.00000069
_cell_angle_beta   89.99999967
_cell_angle_gamma   120.00000144
_symmetry_Int_Tables_number   1
_chemical_formula_structural   TiHSe
_chemical_formula_sum   'Ti1 H1 Se1'
_cell_volume   36.69842586
_cell_formula_units_Z   1
loop_
 _symmetry_equiv_pos_site_id
 _symmetry_equiv_pos_as_xyz
  1  'x, y, z'
loop_
 _atom_site_type_symbol
 _atom_site_label
 _atom_site_symmetry_multiplicity
 _atom_site_fract_x
 _atom_site_fract_y
 _atom_site_fract_z
 _atom_site_occupancy
  Ti  Ti0  1  0.33333334  0.66666668  0.00000001  1
  H  H1  1  -0.00000000  -0.00000000  -0.00000000  1
  Se  Se2  1  0.66666666  0.33333332  0.50000000  1
