# generated using pymatgen
data_TiMoAs2
_symmetry_space_group_name_H-M   'P 1'
_cell_length_a   3.29044368
_cell_length_b   4.35226881
_cell_length_c   4.99670268
_cell_angle_alpha   89.99982449
_cell_angle_beta   109.29748093
_cell_angle_gamma   89.99999747
_symmetry_Int_Tables_number   1
_chemical_formula_structural   TiMoAs2
_chemical_formula_sum   'Ti1 Mo1 As2'
_cell_volume   67.53684640
_cell_formula_units_Z   1
loop_
 _symmetry_equiv_pos_site_id
 _symmetry_equiv_pos_as_xyz
  1  'x, y, z'
loop_
 _atom_site_type_symbol
 _atom_site_label
 _atom_site_symmetry_multiplicity
 _atom_site_fract_x
 _atom_site_fract_y
 _atom_site_fract_z
 _atom_site_occupancy
  Ti  Ti0  1  0.71503377  0.49999946  0.05427549  1
  Mo  Mo1  1  0.53873864  0.00000074  0.70357925  1
  As  As2  1  0.24778821  -0.00000098  0.12211065  1
  As  As3  1  -0.00166062  0.50000077  0.62003461  1
