# generated using pymatgen
data_TiMoSe2
_symmetry_space_group_name_H-M   'P 1'
_cell_length_a   3.20748702
_cell_length_b   3.20795327
_cell_length_c   13.89960293
_cell_angle_alpha   90.01815054
_cell_angle_beta   89.97876109
_cell_angle_gamma   119.95668286
_symmetry_Int_Tables_number   1
_chemical_formula_structural   TiMoSe2
_chemical_formula_sum   'Ti1 Mo1 Se2'
_cell_volume   123.91256060
_cell_formula_units_Z   1
loop_
 _symmetry_equiv_pos_site_id
 _symmetry_equiv_pos_as_xyz
  1  'x, y, z'
loop_
 _atom_site_type_symbol
 _atom_site_label
 _atom_site_symmetry_multiplicity
 _atom_site_fract_x
 _atom_site_fract_y
 _atom_site_fract_z
 _atom_site_occupancy
  Ti  Ti0  1  0.33336017  0.66661209  0.50095544  1
  Mo  Mo1  1  -0.00010268  0.00007117  -0.00186379  1
  Se  Se2  1  -0.00002397  0.00003266  0.38365767  1
  Se  Se3  1  0.33343315  0.66661740  0.11635069  1
