# generated using pymatgen
data_TiOsF
_symmetry_space_group_name_H-M   'P 1'
_cell_length_a   2.81871554
_cell_length_b   2.97612507
_cell_length_c   5.76801748
_cell_angle_alpha   89.99875868
_cell_angle_beta   90.00076366
_cell_angle_gamma   90.00271604
_symmetry_Int_Tables_number   1
_chemical_formula_structural   TiOsF
_chemical_formula_sum   'Ti1 Os1 F1'
_cell_volume   48.38703331
_cell_formula_units_Z   1
loop_
 _symmetry_equiv_pos_site_id
 _symmetry_equiv_pos_as_xyz
  1  'x, y, z'
loop_
 _atom_site_type_symbol
 _atom_site_label
 _atom_site_symmetry_multiplicity
 _atom_site_fract_x
 _atom_site_fract_y
 _atom_site_fract_z
 _atom_site_occupancy
  Ti  Ti0  1  0.49999126  0.50000002  -0.08434252  1
  Os  Os1  1  0.00000748  0.00000000  0.65200593  1
  F  F2  1  0.00000127  0.49999998  0.17163658  1
