# generated using pymatgen
data_TiReSi
_symmetry_space_group_name_H-M   'P 1'
_cell_length_a   4.33678355
_cell_length_b   4.33678354
_cell_length_c   2.74137100
_cell_angle_alpha   90.00000297
_cell_angle_beta   89.99999254
_cell_angle_gamma   120.00000415
_symmetry_Int_Tables_number   1
_chemical_formula_structural   TiReSi
_chemical_formula_sum   'Ti1 Re1 Si1'
_cell_volume   44.65128072
_cell_formula_units_Z   1
loop_
 _symmetry_equiv_pos_site_id
 _symmetry_equiv_pos_as_xyz
  1  'x, y, z'
loop_
 _atom_site_type_symbol
 _atom_site_label
 _atom_site_symmetry_multiplicity
 _atom_site_fract_x
 _atom_site_fract_y
 _atom_site_fract_z
 _atom_site_occupancy
  Ti  Ti0  1  0.66666660  0.33333331  0.71401675  1
  Re  Re1  1  0.00000007  0.00000001  0.10629458  1
  Si  Si2  1  0.33333333  0.66666668  0.17968868  1
