# generated using pymatgen
data_TiSBr
_symmetry_space_group_name_H-M   'P 1'
_cell_length_a   4.39255552
_cell_length_b   4.39255464
_cell_length_c   3.48184709
_cell_angle_alpha   89.99998834
_cell_angle_beta   90.00001487
_cell_angle_gamma   120.00006982
_symmetry_Int_Tables_number   1
_chemical_formula_structural   TiSBr
_chemical_formula_sum   'Ti1 S1 Br1'
_cell_volume   58.18009858
_cell_formula_units_Z   1
loop_
 _symmetry_equiv_pos_site_id
 _symmetry_equiv_pos_as_xyz
  1  'x, y, z'
loop_
 _atom_site_type_symbol
 _atom_site_label
 _atom_site_symmetry_multiplicity
 _atom_site_fract_x
 _atom_site_fract_y
 _atom_site_fract_z
 _atom_site_occupancy
  Ti  Ti0  1  0.33333362  0.66666650  0.00000003  1
  S  S1  1  0.66666657  0.33333342  0.49999996  1
  Br  Br2  1  -0.00000020  0.00000008  0.00000001  1
