# generated using pymatgen
data_TiSiIr
_symmetry_space_group_name_H-M   'P 1'
_cell_length_a   4.19005982
_cell_length_b   4.19005987
_cell_length_c   2.87023687
_cell_angle_alpha   89.99999945
_cell_angle_beta   90.00000047
_cell_angle_gamma   120.00000184
_symmetry_Int_Tables_number   1
_chemical_formula_structural   TiSiIr
_chemical_formula_sum   'Ti1 Si1 Ir1'
_cell_volume   43.64040917
_cell_formula_units_Z   1
loop_
 _symmetry_equiv_pos_site_id
 _symmetry_equiv_pos_as_xyz
  1  'x, y, z'
loop_
 _atom_site_type_symbol
 _atom_site_label
 _atom_site_symmetry_multiplicity
 _atom_site_fract_x
 _atom_site_fract_y
 _atom_site_fract_z
 _atom_site_occupancy
  Ti  Ti0  1  0.33333335  0.66666668  0.49999997  1
  Si  Si1  1  0.66666666  0.33333332  0.00000002  1
  Ir  Ir2  1  -0.00000001  -0.00000000  0.00000001  1
