# generated using pymatgen
data_TiSI
_symmetry_space_group_name_H-M   'P 1'
_cell_length_a   4.09014847
_cell_length_b   4.09010883
_cell_length_c   5.21050657
_cell_angle_alpha   90.00000185
_cell_angle_beta   90.00001917
_cell_angle_gamma   120.00121714
_symmetry_Int_Tables_number   1
_chemical_formula_structural   TiSI
_chemical_formula_sum   'Ti1 S1 I1'
_cell_volume   75.48822090
_cell_formula_units_Z   1
loop_
 _symmetry_equiv_pos_site_id
 _symmetry_equiv_pos_as_xyz
  1  'x, y, z'
loop_
 _atom_site_type_symbol
 _atom_site_label
 _atom_site_symmetry_multiplicity
 _atom_site_fract_x
 _atom_site_fract_y
 _atom_site_fract_z
 _atom_site_occupancy
  Ti  Ti0  1  0.33333387  0.66666175  -0.00000008  1
  S  S1  1  0.66666660  0.33333345  -0.00000002  1
  I  I2  1  -0.00000047  0.00000480  0.50000010  1
