# generated using pymatgen
data_TlAgBr2
_symmetry_space_group_name_H-M   'P 1'
_cell_length_a   7.69819158
_cell_length_b   4.55956038
_cell_length_c   7.38219724
_cell_angle_alpha   90.02180671
_cell_angle_beta   145.30716095
_cell_angle_gamma   89.98826214
_symmetry_Int_Tables_number   1
_chemical_formula_structural   TlAgBr2
_chemical_formula_sum   'Tl1 Ag1 Br2'
_cell_volume   147.48384600
_cell_formula_units_Z   1
loop_
 _symmetry_equiv_pos_site_id
 _symmetry_equiv_pos_as_xyz
  1  'x, y, z'
loop_
 _atom_site_type_symbol
 _atom_site_label
 _atom_site_symmetry_multiplicity
 _atom_site_fract_x
 _atom_site_fract_y
 _atom_site_fract_z
 _atom_site_occupancy
  Tl  Tl0  1  -0.07403492  0.49993454  0.43451629  1
  Ag  Ag1  1  0.36402401  0.00002696  0.39402973  1
  Br  Br2  1  0.29448124  0.50007951  0.15891065  1
  Br  Br3  1  0.47652966  -0.00004101  0.83984333  1
