# generated using pymatgen
data_TlCuCl2
_symmetry_space_group_name_H-M   'P 1'
_cell_length_a   4.53295126
_cell_length_b   3.99599411
_cell_length_c   6.63034512
_cell_angle_alpha   90.00009545
_cell_angle_beta   105.05913611
_cell_angle_gamma   89.99995766
_symmetry_Int_Tables_number   1
_chemical_formula_structural   TlCuCl2
_chemical_formula_sum   'Tl1 Cu1 Cl2'
_cell_volume   115.97528473
_cell_formula_units_Z   1
loop_
 _symmetry_equiv_pos_site_id
 _symmetry_equiv_pos_as_xyz
  1  'x, y, z'
loop_
 _atom_site_type_symbol
 _atom_site_label
 _atom_site_symmetry_multiplicity
 _atom_site_fract_x
 _atom_site_fract_y
 _atom_site_fract_z
 _atom_site_occupancy
  Tl  Tl0  1  0.64250076  0.50000054  0.08240527  1
  Cu  Cu1  1  0.05423379  -0.00000085  0.54808477  1
  Cl  Cl2  1  -0.01556193  0.49999959  0.68834489  1
  Cl  Cl3  1  0.19682738  0.00000072  0.24846508  1
