# generated using pymatgen
data_TlCuSe2
_symmetry_space_group_name_H-M   'P 1'
_cell_length_a   5.81301705
_cell_length_b   4.27325937
_cell_length_c   4.28157632
_cell_angle_alpha   90.00000027
_cell_angle_beta   89.97434490
_cell_angle_gamma   89.99999983
_symmetry_Int_Tables_number   1
_chemical_formula_structural   TlCuSe2
_chemical_formula_sum   'Tl1 Cu1 Se2'
_cell_volume   106.35661256
_cell_formula_units_Z   1
loop_
 _symmetry_equiv_pos_site_id
 _symmetry_equiv_pos_as_xyz
  1  'x, y, z'
loop_
 _atom_site_type_symbol
 _atom_site_label
 _atom_site_symmetry_multiplicity
 _atom_site_fract_x
 _atom_site_fract_y
 _atom_site_fract_z
 _atom_site_occupancy
  Tl  Tl0  1  0.50008662  -0.00000001  0.60355429  1
  Cu  Cu1  1  0.00090046  0.50000000  0.09654718  1
  Se  Se2  1  0.20200133  0.50000000  0.59752838  1
  Se  Se3  1  0.79691160  0.00000000  0.10237015  1
