# generated using pymatgen
data_Tm2SeO
_symmetry_space_group_name_H-M   'P 1'
_cell_length_a   3.76037816
_cell_length_b   3.76037833
_cell_length_c   5.33456213
_cell_angle_alpha   90.00000052
_cell_angle_beta   89.99999885
_cell_angle_gamma   90.00000213
_symmetry_Int_Tables_number   1
_chemical_formula_structural   Tm2SeO
_chemical_formula_sum   'Tm2 Se1 O1'
_cell_volume   75.43307997
_cell_formula_units_Z   1
loop_
 _symmetry_equiv_pos_site_id
 _symmetry_equiv_pos_as_xyz
  1  'x, y, z'
loop_
 _atom_site_type_symbol
 _atom_site_label
 _atom_site_symmetry_multiplicity
 _atom_site_fract_x
 _atom_site_fract_y
 _atom_site_fract_z
 _atom_site_occupancy
  Tm  Tm0  1  0.00000001  0.00000001  0.50000000  1
  Tm  Tm1  1  0.50000000  0.49999999  -0.00000001  1
  Se  Se2  1  0.50000001  0.50000000  0.50000002  1
  O  O3  1  -0.00000002  0.00000000  -0.00000000  1
