# generated using pymatgen
data_TmAsI
_symmetry_space_group_name_H-M   'P 1'
_cell_length_a   4.29334054
_cell_length_b   4.29333866
_cell_length_c   6.50601230
_cell_angle_alpha   89.99949648
_cell_angle_beta   90.00005102
_cell_angle_gamma   119.99997011
_symmetry_Int_Tables_number   1
_chemical_formula_structural   TmAsI
_chemical_formula_sum   'Tm1 As1 I1'
_cell_volume   103.85708462
_cell_formula_units_Z   1
loop_
 _symmetry_equiv_pos_site_id
 _symmetry_equiv_pos_as_xyz
  1  'x, y, z'
loop_
 _atom_site_type_symbol
 _atom_site_label
 _atom_site_symmetry_multiplicity
 _atom_site_fract_x
 _atom_site_fract_y
 _atom_site_fract_z
 _atom_site_occupancy
  Tm  Tm0  1  0.66666590  0.33333222  0.82007959  1
  As  As1  1  0.00000095  0.00000125  0.00866942  1
  I  I2  1  -0.00000018  -0.00000014  0.49695098  1
