# generated using pymatgen
data_TmBeO
_symmetry_space_group_name_H-M   'P 1'
_cell_length_a   3.49730780
_cell_length_b   3.49743154
_cell_length_c   4.67482956
_cell_angle_alpha   90.00402943
_cell_angle_beta   90.00004160
_cell_angle_gamma   119.99912093
_symmetry_Int_Tables_number   1
_chemical_formula_structural   TmBeO
_chemical_formula_sum   'Tm1 Be1 O1'
_cell_volume   49.52030810
_cell_formula_units_Z   1
loop_
 _symmetry_equiv_pos_site_id
 _symmetry_equiv_pos_as_xyz
  1  'x, y, z'
loop_
 _atom_site_type_symbol
 _atom_site_label
 _atom_site_symmetry_multiplicity
 _atom_site_fract_x
 _atom_site_fract_y
 _atom_site_fract_z
 _atom_site_occupancy
  Tm  Tm0  1  0.33332367  0.66665222  -0.32232196  1
  Be  Be1  1  0.66668652  0.33336615  1.21321330  1
  O  O2  1  0.66665648  0.33331497  -0.11759134  1
