# generated using pymatgen
data_TmCoBr2
_symmetry_space_group_name_H-M   'P 1'
_cell_length_a   3.63919353
_cell_length_b   3.81057795
_cell_length_c   7.81841693
_cell_angle_alpha   89.99894524
_cell_angle_beta   88.77238649
_cell_angle_gamma   89.99929951
_symmetry_Int_Tables_number   1
_chemical_formula_structural   TmCoBr2
_chemical_formula_sum   'Tm1 Co1 Br2'
_cell_volume   108.39646875
_cell_formula_units_Z   1
loop_
 _symmetry_equiv_pos_site_id
 _symmetry_equiv_pos_as_xyz
  1  'x, y, z'
loop_
 _atom_site_type_symbol
 _atom_site_label
 _atom_site_symmetry_multiplicity
 _atom_site_fract_x
 _atom_site_fract_y
 _atom_site_fract_z
 _atom_site_occupancy
  Tm  Tm0  1  0.59748683  0.50000208  -0.04428799  1
  Co  Co1  1  0.09265410  0.00000413  0.04355603  1
  Br  Br2  1  0.08550159  0.50000080  0.24641418  1
  Br  Br3  1  0.13005748  -0.00000701  0.74101778  1
