# generated using pymatgen
data_TmGeF
_symmetry_space_group_name_H-M   'P 1'
_cell_length_a   3.27836515
_cell_length_b   3.52585603
_cell_length_c   6.12159452
_cell_angle_alpha   89.99394258
_cell_angle_beta   89.89214150
_cell_angle_gamma   90.00232628
_symmetry_Int_Tables_number   1
_chemical_formula_structural   TmGeF
_chemical_formula_sum   'Tm1 Ge1 F1'
_cell_volume   70.75965159
_cell_formula_units_Z   1
loop_
 _symmetry_equiv_pos_site_id
 _symmetry_equiv_pos_as_xyz
  1  'x, y, z'
loop_
 _atom_site_type_symbol
 _atom_site_label
 _atom_site_symmetry_multiplicity
 _atom_site_fract_x
 _atom_site_fract_y
 _atom_site_fract_z
 _atom_site_occupancy
  Tm  Tm0  1  0.49990336  0.49999515  -0.06589209  1
  Ge  Ge1  1  0.00093229  0.00002612  0.64228726  1
  F  F2  1  -0.00083565  0.49997873  0.15890483  1
