# generated using pymatgen
data_TmGeSb
_symmetry_space_group_name_H-M   'P 1'
_cell_length_a   4.71753711
_cell_length_b   4.71753333
_cell_length_c   5.51493743
_cell_angle_alpha   89.99983104
_cell_angle_beta   90.00001473
_cell_angle_gamma   120.00006092
_symmetry_Int_Tables_number   1
_chemical_formula_structural   TmGeSb
_chemical_formula_sum   'Tm1 Ge1 Sb1'
_cell_volume   106.29216599
_cell_formula_units_Z   1
loop_
 _symmetry_equiv_pos_site_id
 _symmetry_equiv_pos_as_xyz
  1  'x, y, z'
loop_
 _atom_site_type_symbol
 _atom_site_label
 _atom_site_symmetry_multiplicity
 _atom_site_fract_x
 _atom_site_fract_y
 _atom_site_fract_z
 _atom_site_occupancy
  Tm  Tm0  1  -0.00000019  0.00000021  0.49999998  1
  Ge  Ge1  1  0.00000009  -0.00000022  -0.00000002  1
  Sb  Sb2  1  0.33333344  0.66666668  0.00000004  1
