# generated using pymatgen
data_TmHfAs
_symmetry_space_group_name_H-M   'P 1'
_cell_length_a   4.42863761
_cell_length_b   4.42863739
_cell_length_c   5.77395381
_cell_angle_alpha   89.99999695
_cell_angle_beta   89.99999073
_cell_angle_gamma   120.00000268
_symmetry_Int_Tables_number   1
_chemical_formula_structural   TmHfAs
_chemical_formula_sum   'Tm1 Hf1 As1'
_cell_volume   98.07181021
_cell_formula_units_Z   1
loop_
 _symmetry_equiv_pos_site_id
 _symmetry_equiv_pos_as_xyz
  1  'x, y, z'
loop_
 _atom_site_type_symbol
 _atom_site_label
 _atom_site_symmetry_multiplicity
 _atom_site_fract_x
 _atom_site_fract_y
 _atom_site_fract_z
 _atom_site_occupancy
  Tm  Tm0  1  0.00000001  0.00000001  0.50000001  1
  Hf  Hf1  1  -0.00000000  0.00000000  -0.00000001  1
  As  As2  1  0.33333333  0.66666666  0.00000000  1
