# generated using pymatgen
data_TmHgI2
_symmetry_space_group_name_H-M   'P 1'
_cell_length_a   4.62240465
_cell_length_b   4.13322013
_cell_length_c   9.39719291
_cell_angle_alpha   90.00047207
_cell_angle_beta   92.71357148
_cell_angle_gamma   89.99812658
_symmetry_Int_Tables_number   1
_chemical_formula_structural   TmHgI2
_chemical_formula_sum   'Tm1 Hg1 I2'
_cell_volume   179.33596237
_cell_formula_units_Z   1
loop_
 _symmetry_equiv_pos_site_id
 _symmetry_equiv_pos_as_xyz
  1  'x, y, z'
loop_
 _atom_site_type_symbol
 _atom_site_label
 _atom_site_symmetry_multiplicity
 _atom_site_fract_x
 _atom_site_fract_y
 _atom_site_fract_z
 _atom_site_occupancy
  Tm  Tm0  1  0.39545998  0.50002828  -0.08250760  1
  Hg  Hg1  1  -0.09954272  0.00001749  -0.00716446  1
  I  I2  1  0.41599152  0.49993392  0.21810169  1
  I  I3  1  0.36609121  0.00002030  0.67927037  1
