# generated using pymatgen
data_TmOsBr2
_symmetry_space_group_name_H-M   'P 1'
_cell_length_a   4.19523391
_cell_length_b   3.71509226
_cell_length_c   7.89551013
_cell_angle_alpha   89.99893583
_cell_angle_beta   104.11208889
_cell_angle_gamma   90.00060935
_symmetry_Int_Tables_number   1
_chemical_formula_structural   TmOsBr2
_chemical_formula_sum   'Tm1 Os1 Br2'
_cell_volume   119.34311824
_cell_formula_units_Z   1
loop_
 _symmetry_equiv_pos_site_id
 _symmetry_equiv_pos_as_xyz
  1  'x, y, z'
loop_
 _atom_site_type_symbol
 _atom_site_label
 _atom_site_symmetry_multiplicity
 _atom_site_fract_x
 _atom_site_fract_y
 _atom_site_fract_z
 _atom_site_occupancy
  Tm  Tm0  1  0.54753619  0.50000089  0.00728295  1
  Os  Os1  1  0.07079627  0.00000167  0.07057995  1
  Br  Br2  1  0.13709325  0.49999473  0.30060683  1
  Br  Br3  1  0.11257430  0.00000270  0.75923027  1
