# generated using pymatgen
data_TmSiNi
_symmetry_space_group_name_H-M   'P 1'
_cell_length_a   4.01363083
_cell_length_b   4.01363082
_cell_length_c   3.72135696
_cell_angle_alpha   90.00000040
_cell_angle_beta   90.00000045
_cell_angle_gamma   120.00006274
_symmetry_Int_Tables_number   1
_chemical_formula_structural   TmSiNi
_chemical_formula_sum   'Tm1 Si1 Ni1'
_cell_volume   51.91663486
_cell_formula_units_Z   1
loop_
 _symmetry_equiv_pos_site_id
 _symmetry_equiv_pos_as_xyz
  1  'x, y, z'
loop_
 _atom_site_type_symbol
 _atom_site_label
 _atom_site_symmetry_multiplicity
 _atom_site_fract_x
 _atom_site_fract_y
 _atom_site_fract_z
 _atom_site_occupancy
  Tm  Tm0  1  0.00000006  -0.00000009  0.00000002  1
  Si  Si1  1  0.33333321  0.66666680  0.50000002  1
  Ni  Ni2  1  0.66666673  0.33333329  0.49999996  1
