# generated using pymatgen
data_TmSiSb2
_symmetry_space_group_name_H-M   'P 1'
_cell_length_a   5.02373922
_cell_length_b   5.02374006
_cell_length_c   5.53958169
_cell_angle_alpha   90.00000183
_cell_angle_beta   90.00000524
_cell_angle_gamma   120.00000000
_symmetry_Int_Tables_number   1
_chemical_formula_structural   TmSiSb2
_chemical_formula_sum   'Tm1 Si1 Sb2'
_cell_volume   121.07705519
_cell_formula_units_Z   1
loop_
 _symmetry_equiv_pos_site_id
 _symmetry_equiv_pos_as_xyz
  1  'x, y, z'
loop_
 _atom_site_type_symbol
 _atom_site_label
 _atom_site_symmetry_multiplicity
 _atom_site_fract_x
 _atom_site_fract_y
 _atom_site_fract_z
 _atom_site_occupancy
  Tm  Tm0  1  0.00000014  0.00000009  -0.00000007  1
  Si  Si1  1  0.33333329  0.66666662  0.50000002  1
  Sb  Sb2  1  0.33333330  0.66666665  0.00000003  1
  Sb  Sb3  1  0.66666661  0.33333330  0.50000001  1
