# generated using pymatgen
data_TmTe2Ru
_symmetry_space_group_name_H-M   'P 1'
_cell_length_a   4.15091856
_cell_length_b   3.45230265
_cell_length_c   8.76719363
_cell_angle_alpha   89.99875412
_cell_angle_beta   93.97845073
_cell_angle_gamma   90.00389810
_symmetry_Int_Tables_number   1
_chemical_formula_structural   TmTe2Ru
_chemical_formula_sum   'Tm1 Te2 Ru1'
_cell_volume   125.33312032
_cell_formula_units_Z   1
loop_
 _symmetry_equiv_pos_site_id
 _symmetry_equiv_pos_as_xyz
  1  'x, y, z'
loop_
 _atom_site_type_symbol
 _atom_site_label
 _atom_site_symmetry_multiplicity
 _atom_site_fract_x
 _atom_site_fract_y
 _atom_site_fract_z
 _atom_site_occupancy
  Tm  Tm0  1  0.63487031  0.50000147  0.03615158  1
  Te  Te1  1  0.08273236  0.50001861  0.69785959  1
  Te  Te2  1  0.16439124  -0.00002223  0.22949731  1
  Ru  Ru3  1  0.11590609  0.00000215  -0.08240847  1
