# generated using pymatgen
data_TmTiAs
_symmetry_space_group_name_H-M   'P 1'
_cell_length_a   3.56613041
_cell_length_b   3.56613011
_cell_length_c   6.42299159
_cell_angle_alpha   90.00001011
_cell_angle_beta   89.99999581
_cell_angle_gamma   120.00003128
_symmetry_Int_Tables_number   1
_chemical_formula_structural   TmTiAs
_chemical_formula_sum   'Tm1 Ti1 As1'
_cell_volume   70.73954358
_cell_formula_units_Z   1
loop_
 _symmetry_equiv_pos_site_id
 _symmetry_equiv_pos_as_xyz
  1  'x, y, z'
loop_
 _atom_site_type_symbol
 _atom_site_label
 _atom_site_symmetry_multiplicity
 _atom_site_fract_x
 _atom_site_fract_y
 _atom_site_fract_z
 _atom_site_occupancy
  Tm  Tm0  1  0.00000000  -0.00000016  -0.02281153  1
  Ti  Ti1  1  -0.00000002  0.00000009  0.50940882  1
  As  As2  1  0.33333335  0.66666673  0.28070270  1
