# generated using pymatgen
data_TmVTe
_symmetry_space_group_name_H-M   'P 1'
_cell_length_a   3.63644785
_cell_length_b   3.63646167
_cell_length_c   6.88916204
_cell_angle_alpha   90.00040788
_cell_angle_beta   89.99973323
_cell_angle_gamma   120.00010552
_symmetry_Int_Tables_number   1
_chemical_formula_structural   TmVTe
_chemical_formula_sum   'Tm1 V1 Te1'
_cell_volume   78.89562995
_cell_formula_units_Z   1
loop_
 _symmetry_equiv_pos_site_id
 _symmetry_equiv_pos_as_xyz
  1  'x, y, z'
loop_
 _atom_site_type_symbol
 _atom_site_label
 _atom_site_symmetry_multiplicity
 _atom_site_fract_x
 _atom_site_fract_y
 _atom_site_fract_z
 _atom_site_occupancy
  Tm  Tm0  1  0.00000358  0.00000006  -0.04675110  1
  V  V1  1  0.00000170  0.00000180  0.53312169  1
  Te  Te2  1  0.33332806  0.66666480  0.28692941  1
