# generated using pymatgen
data_VAgBr
_symmetry_space_group_name_H-M   'P 1'
_cell_length_a   4.95611110
_cell_length_b   3.99544501
_cell_length_c   3.99510446
_cell_angle_alpha   90.02200900
_cell_angle_beta   89.98354652
_cell_angle_gamma   90.00366618
_symmetry_Int_Tables_number   1
_chemical_formula_structural   VAgBr
_chemical_formula_sum   'V1 Ag1 Br1'
_cell_volume   79.11052740
_cell_formula_units_Z   1
loop_
 _symmetry_equiv_pos_site_id
 _symmetry_equiv_pos_as_xyz
  1  'x, y, z'
loop_
 _atom_site_type_symbol
 _atom_site_label
 _atom_site_symmetry_multiplicity
 _atom_site_fract_x
 _atom_site_fract_y
 _atom_site_fract_z
 _atom_site_occupancy
  V  V0  1  0.50000443  0.49999747  0.49999971  1
  Ag  Ag1  1  -0.00000042  0.00000085  0.00000014  1
  Br  Br2  1  -0.00000401  0.50000168  0.50000015  1
