# generated using pymatgen
data_VHRh
_symmetry_space_group_name_H-M   'P 1'
_cell_length_a   2.76730534
_cell_length_b   2.76583774
_cell_length_c   4.02235508
_cell_angle_alpha   90.00000119
_cell_angle_beta   90.00000000
_cell_angle_gamma   89.99999834
_symmetry_Int_Tables_number   1
_chemical_formula_structural   VHRh
_chemical_formula_sum   'V1 H1 Rh1'
_cell_volume   30.78677413
_cell_formula_units_Z   1
loop_
 _symmetry_equiv_pos_site_id
 _symmetry_equiv_pos_as_xyz
  1  'x, y, z'
loop_
 _atom_site_type_symbol
 _atom_site_label
 _atom_site_symmetry_multiplicity
 _atom_site_fract_x
 _atom_site_fract_y
 _atom_site_fract_z
 _atom_site_occupancy
  V  V0  1  0.50000000  0.50000001  -0.03783655  1
  H  H1  1  0.00000001  0.49999999  0.24624304  1
  Rh  Rh2  1  -0.00000001  0.00000000  0.52879351  1
