# generated using pymatgen
data_VIrSe2
_symmetry_space_group_name_H-M   'P 1'
_cell_length_a   3.86237324
_cell_length_b   3.86952130
_cell_length_c   6.73116946
_cell_angle_alpha   89.99859186
_cell_angle_beta   103.51987458
_cell_angle_gamma   89.99941865
_symmetry_Int_Tables_number   1
_chemical_formula_structural   VIrSe2
_chemical_formula_sum   'V1 Ir1 Se2'
_cell_volume   97.81316814
_cell_formula_units_Z   1
loop_
 _symmetry_equiv_pos_site_id
 _symmetry_equiv_pos_as_xyz
  1  'x, y, z'
loop_
 _atom_site_type_symbol
 _atom_site_label
 _atom_site_symmetry_multiplicity
 _atom_site_fract_x
 _atom_site_fract_y
 _atom_site_fract_z
 _atom_site_occupancy
  V  V0  1  0.00031896  0.00000054  0.05301353  1
  Ir  Ir1  1  0.50082787  0.49999908  0.05291071  1
  Se  Se2  1  0.09852328  0.50000197  0.29254666  1
  Se  Se3  1  0.40302989  -0.00000158  0.81422910  1
