# generated using pymatgen
data_VSI
_symmetry_space_group_name_H-M   'P 1'
_cell_length_a   4.02442498
_cell_length_b   4.02442094
_cell_length_c   5.15586283
_cell_angle_alpha   90.00002456
_cell_angle_beta   89.99998756
_cell_angle_gamma   120.00004878
_symmetry_Int_Tables_number   1
_chemical_formula_structural   VSI
_chemical_formula_sum   'V1 S1 I1'
_cell_volume   72.31676807
_cell_formula_units_Z   1
loop_
 _symmetry_equiv_pos_site_id
 _symmetry_equiv_pos_as_xyz
  1  'x, y, z'
loop_
 _atom_site_type_symbol
 _atom_site_label
 _atom_site_symmetry_multiplicity
 _atom_site_fract_x
 _atom_site_fract_y
 _atom_site_fract_z
 _atom_site_occupancy
  V  V0  1  -0.00000027  -0.00000021  -0.00000241  1
  S  S1  1  0.33333322  0.66666676  0.00000115  1
  I  I2  1  0.66666705  0.33333344  0.50000126  1
