# generated using pymatgen
data_VSiPt
_symmetry_space_group_name_H-M   'P 1'
_cell_length_a   4.20700266
_cell_length_b   4.20700253
_cell_length_c   2.74898005
_cell_angle_alpha   89.99999928
_cell_angle_beta   90.00000131
_cell_angle_gamma   120.00002541
_symmetry_Int_Tables_number   1
_chemical_formula_structural   VSiPt
_chemical_formula_sum   'V1 Si1 Pt1'
_cell_volume   42.13545307
_cell_formula_units_Z   1
loop_
 _symmetry_equiv_pos_site_id
 _symmetry_equiv_pos_as_xyz
  1  'x, y, z'
loop_
 _atom_site_type_symbol
 _atom_site_label
 _atom_site_symmetry_multiplicity
 _atom_site_fract_x
 _atom_site_fract_y
 _atom_site_fract_z
 _atom_site_occupancy
  V  V0  1  0.33333332  0.66666680  0.50000001  1
  Si  Si1  1  0.66666668  0.33333326  -0.00000002  1
  Pt  Pt2  1  -0.00000000  -0.00000006  0.00000001  1
