# generated using pymatgen
data_VTeSe2
_symmetry_space_group_name_H-M   'P 1'
_cell_length_a   3.60760686
_cell_length_b   3.60760470
_cell_length_c   14.16653015
_cell_angle_alpha   90.00056192
_cell_angle_beta   89.99940941
_cell_angle_gamma   119.99988295
_symmetry_Int_Tables_number   1
_chemical_formula_structural   VTeSe2
_chemical_formula_sum   'V1 Te1 Se2'
_cell_volume   159.67347684
_cell_formula_units_Z   1
loop_
 _symmetry_equiv_pos_site_id
 _symmetry_equiv_pos_as_xyz
  1  'x, y, z'
loop_
 _atom_site_type_symbol
 _atom_site_label
 _atom_site_symmetry_multiplicity
 _atom_site_fract_x
 _atom_site_fract_y
 _atom_site_fract_z
 _atom_site_occupancy
  V  V0  1  0.66666624  0.33333410  0.49558732  1
  Te  Te1  1  0.66666578  0.33333425  0.01452337  1
  Se  Se2  1  0.33333386  0.66666577  0.40981465  1
  Se  Se3  1  0.33333412  0.66666588  0.15017466  1
