# generated using pymatgen
data_YBr2F
_symmetry_space_group_name_H-M   'P 1'
_cell_length_a   4.92775521
_cell_length_b   3.92310673
_cell_length_c   5.98921262
_cell_angle_alpha   90.00000006
_cell_angle_beta   109.71664018
_cell_angle_gamma   90.00000145
_symmetry_Int_Tables_number   1
_chemical_formula_structural   YBr2F
_chemical_formula_sum   'Y1 Br2 F1'
_cell_volume   108.99599374
_cell_formula_units_Z   1
loop_
 _symmetry_equiv_pos_site_id
 _symmetry_equiv_pos_as_xyz
  1  'x, y, z'
loop_
 _atom_site_type_symbol
 _atom_site_label
 _atom_site_symmetry_multiplicity
 _atom_site_fract_x
 _atom_site_fract_y
 _atom_site_fract_z
 _atom_site_occupancy
  Y  Y0  1  0.73045883  0.50000000  0.34516028  1
  Br  Br1  1  0.25996887  0.50000000  0.66204280  1
  Br  Br2  1  0.90163095  0.00000000  0.06280834  1
  F  F3  1  0.60794136  -0.00000000  0.42998858  1
