# generated using pymatgen
data_YFeAs2
_symmetry_space_group_name_H-M   'P 1'
_cell_length_a   3.96527236
_cell_length_b   4.55728964
_cell_length_c   4.48617240
_cell_angle_alpha   90.00000039
_cell_angle_beta   89.73270510
_cell_angle_gamma   90.00000135
_symmetry_Int_Tables_number   1
_chemical_formula_structural   YFeAs2
_chemical_formula_sum   'Y1 Fe1 As2'
_cell_volume   81.06826664
_cell_formula_units_Z   1
loop_
 _symmetry_equiv_pos_site_id
 _symmetry_equiv_pos_as_xyz
  1  'x, y, z'
loop_
 _atom_site_type_symbol
 _atom_site_label
 _atom_site_symmetry_multiplicity
 _atom_site_fract_x
 _atom_site_fract_y
 _atom_site_fract_z
 _atom_site_occupancy
  Y  Y0  1  0.25078374  0.50000000  0.77720610  1
  Fe  Fe1  1  0.74221670  -0.00000000  0.47023841  1
  As  As2  1  0.75963177  0.50000000  0.29572138  1
  As  As3  1  0.74736779  0.00000000  0.95673412  1
