# generated using pymatgen
data_YMnSb2
_symmetry_space_group_name_H-M   'P 1'
_cell_length_a   3.53516537
_cell_length_b   5.03615313
_cell_length_c   5.95061518
_cell_angle_alpha   90.00002568
_cell_angle_beta   106.82136389
_cell_angle_gamma   89.99993298
_symmetry_Int_Tables_number   1
_chemical_formula_structural   YMnSb2
_chemical_formula_sum   'Y1 Mn1 Sb2'
_cell_volume   101.40946868
_cell_formula_units_Z   1
loop_
 _symmetry_equiv_pos_site_id
 _symmetry_equiv_pos_as_xyz
  1  'x, y, z'
loop_
 _atom_site_type_symbol
 _atom_site_label
 _atom_site_symmetry_multiplicity
 _atom_site_fract_x
 _atom_site_fract_y
 _atom_site_fract_z
 _atom_site_occupancy
  Y  Y0  1  0.09589321  -0.00000000  0.44588731  1
  Mn  Mn1  1  0.51767232  0.49999974  0.82840416  1
  Sb  Sb2  1  0.53867890  0.50000023  0.32732499  1
  Sb  Sb3  1  0.84775557  0.00000003  0.89838354  1
