# generated using pymatgen
data_YVAs2
_symmetry_space_group_name_H-M   'P 1'
_cell_length_a   3.93351964
_cell_length_b   5.51138032
_cell_length_c   3.93125867
_cell_angle_alpha   90.00000035
_cell_angle_beta   89.79830829
_cell_angle_gamma   90.00000010
_symmetry_Int_Tables_number   1
_chemical_formula_structural   YVAs2
_chemical_formula_sum   'Y1 V1 As2'
_cell_volume   85.22571118
_cell_formula_units_Z   1
loop_
 _symmetry_equiv_pos_site_id
 _symmetry_equiv_pos_as_xyz
  1  'x, y, z'
loop_
 _atom_site_type_symbol
 _atom_site_label
 _atom_site_symmetry_multiplicity
 _atom_site_fract_x
 _atom_site_fract_y
 _atom_site_fract_z
 _atom_site_occupancy
  Y  Y0  1  0.87549213  0.50000000  0.87699315  1
  V  V1  1  0.36471903  0.00000000  0.36340920  1
  As  As2  1  0.37551000  0.50000000  0.37685961  1
  As  As3  1  0.88427884  -0.00000000  0.88263804  1
