# generated using pymatgen
data_ZnFeI2
_symmetry_space_group_name_H-M   'P 1'
_cell_length_a   4.83305641
_cell_length_b   3.76217842
_cell_length_c   9.86386906
_cell_angle_alpha   89.99941127
_cell_angle_beta   89.99998937
_cell_angle_gamma   90.03234645
_symmetry_Int_Tables_number   1
_chemical_formula_structural   ZnFeI2
_chemical_formula_sum   'Zn1 Fe1 I2'
_cell_volume   179.35293225
_cell_formula_units_Z   1
loop_
 _symmetry_equiv_pos_site_id
 _symmetry_equiv_pos_as_xyz
  1  'x, y, z'
loop_
 _atom_site_type_symbol
 _atom_site_label
 _atom_site_symmetry_multiplicity
 _atom_site_fract_x
 _atom_site_fract_y
 _atom_site_fract_z
 _atom_site_occupancy
  Zn  Zn0  1  0.50000112  0.50000359  0.43930197  1
  Fe  Fe1  1  -0.00000085  0.00000535  -0.06272467  1
  I  I2  1  -0.00000652  0.50000070  0.12953872  1
  I  I3  1  0.00000625  0.49999036  0.74508398  1
