# generated using pymatgen
data_ZnHF
_symmetry_space_group_name_H-M   'P 1'
_cell_length_a   3.03187939
_cell_length_b   3.03187943
_cell_length_c   3.49899851
_cell_angle_alpha   89.99999996
_cell_angle_beta   90.00000141
_cell_angle_gamma   120.00014190
_symmetry_Int_Tables_number   1
_chemical_formula_structural   ZnHF
_chemical_formula_sum   'Zn1 H1 F1'
_cell_volume   27.85464418
_cell_formula_units_Z   1
loop_
 _symmetry_equiv_pos_site_id
 _symmetry_equiv_pos_as_xyz
  1  'x, y, z'
loop_
 _atom_site_type_symbol
 _atom_site_label
 _atom_site_symmetry_multiplicity
 _atom_site_fract_x
 _atom_site_fract_y
 _atom_site_fract_z
 _atom_site_occupancy
  Zn  Zn0  1  -0.00000012  0.00000009  0.00000000  1
  H  H1  1  0.66666668  0.33333332  -0.00000000  1
  F  F2  1  0.33333345  0.66666659  0.50000000  1
