# generated using pymatgen
data_ZrBr2O
_symmetry_space_group_name_H-M   'P 1'
_cell_length_a   3.97402255
_cell_length_b   3.97402151
_cell_length_c   5.10723155
_cell_angle_alpha   90.00023405
_cell_angle_beta   90.00022395
_cell_angle_gamma   89.99998731
_symmetry_Int_Tables_number   1
_chemical_formula_structural   ZrBr2O
_chemical_formula_sum   'Zr1 Br2 O1'
_cell_volume   80.65774738
_cell_formula_units_Z   1
loop_
 _symmetry_equiv_pos_site_id
 _symmetry_equiv_pos_as_xyz
  1  'x, y, z'
loop_
 _atom_site_type_symbol
 _atom_site_label
 _atom_site_symmetry_multiplicity
 _atom_site_fract_x
 _atom_site_fract_y
 _atom_site_fract_z
 _atom_site_occupancy
  Zr  Zr0  1  0.00000000  0.00000000  0.00000000  1
  Br  Br1  1  -0.00000000  -0.00000000  0.50000008  1
  Br  Br2  1  0.50000002  0.50000001  -0.00000002  1
  O  O3  1  0.49999998  0.49999999  0.49999993  1
