# generated using pymatgen
data_ZrCoP2
_symmetry_space_group_name_H-M   'P 1'
_cell_length_a   3.43021946
_cell_length_b   4.01692165
_cell_length_c   5.12353395
_cell_angle_alpha   89.99992733
_cell_angle_beta   109.52685324
_cell_angle_gamma   89.99999946
_symmetry_Int_Tables_number   1
_chemical_formula_structural   ZrCoP2
_chemical_formula_sum   'Zr1 Co1 P2'
_cell_volume   66.53640092
_cell_formula_units_Z   1
loop_
 _symmetry_equiv_pos_site_id
 _symmetry_equiv_pos_as_xyz
  1  'x, y, z'
loop_
 _atom_site_type_symbol
 _atom_site_label
 _atom_site_symmetry_multiplicity
 _atom_site_fract_x
 _atom_site_fract_y
 _atom_site_fract_z
 _atom_site_occupancy
  Zr  Zr0  1  0.39738668  -0.00000040  0.44478921  1
  Co  Co1  1  0.17899343  0.50000014  0.00649156  1
  P  P2  1  0.10461161  0.00000039  0.86159320  1
  P  P3  1  0.81900828  0.49999988  0.28712604  1
