# generated using pymatgen
data_ZrTe2S
_symmetry_space_group_name_H-M   'P 1'
_cell_length_a   4.02927454
_cell_length_b   3.92219691
_cell_length_c   7.72225555
_cell_angle_alpha   90.12187157
_cell_angle_beta   77.57670538
_cell_angle_gamma   90.57091179
_symmetry_Int_Tables_number   1
_chemical_formula_structural   ZrTe2S
_chemical_formula_sum   'Zr1 Te2 S1'
_cell_volume   119.17601611
_cell_formula_units_Z   1
loop_
 _symmetry_equiv_pos_site_id
 _symmetry_equiv_pos_as_xyz
  1  'x, y, z'
loop_
 _atom_site_type_symbol
 _atom_site_label
 _atom_site_symmetry_multiplicity
 _atom_site_fract_x
 _atom_site_fract_y
 _atom_site_fract_z
 _atom_site_occupancy
  Zr  Zr0  1  -0.08194646  0.50001263  0.09667402  1
  Te  Te1  1  0.30232915  0.49993853  0.37607886  1
  Te  Te2  1  0.49226819  0.00008665  0.91665851  1
  S  S3  1  -0.18205087  -0.00003782  0.33808862  1
