# generated using pymatgen
data_Ac3YGe3Ir2Pd
_symmetry_space_group_name_H-M   P1
_cell_length_a   6.15886326
_cell_length_b   6.26262855
_cell_length_c   6.57118382
_cell_angle_alpha   86.85142918
_cell_angle_beta   88.45996168
_cell_angle_gamma   85.34858123
_symmetry_Int_Tables_number   1
_chemical_formula_structural   Ac3YGe3Ir2Pd
_chemical_formula_sum   'Ac3 Y1 Ge3 Ir2 Pd1'
_cell_volume   252.17486687
_cell_formula_units_Z   1
loop_
 _symmetry_equiv_pos_site_id
 _symmetry_equiv_pos_as_xyz
  1  'x, y, z'
loop_
 _atom_site_type_symbol
 _atom_site_label
 _atom_site_symmetry_multiplicity
 _atom_site_fract_x
 _atom_site_fract_y
 _atom_site_fract_z
 _atom_site_occupancy
  Ac  Ac0  1  0.06198727  0.17855373  0.40826027  1
  Ac  Ac1  1  0.40534948  0.61373939  0.20620897  1
  Ac  Ac2  1  0.57544574  0.90923697  0.68093054  1
  Y  Y3  1  0.89934571  0.42812727  0.89195693  1
  Ge  Ge4  1  0.03919720  0.91102867  0.88679826  1
  Ge  Ge5  1  0.40239598  0.43671825  0.71679721  1
  Ge  Ge6  1  0.61037741  0.10407718  0.20748431  1
  Ir  Ir7  1  0.08837937  0.68339815  0.57800420  1
  Ir  Ir8  1  0.29951003  0.16316533  0.98162755  1
  Pd  Pd9  1  0.87230755  0.74679381  0.21662558  1
