# generated using pymatgen
data_AcAgTeO
_symmetry_space_group_name_H-M   Amm2
_cell_length_a   3.88701469
_cell_length_b   3.81915334
_cell_length_c   12.49205670
_cell_angle_alpha   90.00000000
_cell_angle_beta   90.00000000
_cell_angle_gamma   90.00000000
_symmetry_Int_Tables_number   38
_chemical_formula_structural   AcAgTeO
_chemical_formula_sum   'Ac2 Ag2 Te2 O2'
_cell_volume   185.44589516
_cell_formula_units_Z   2
loop_
 _symmetry_equiv_pos_site_id
 _symmetry_equiv_pos_as_xyz
  1  'x, y, z'
  2  '-x, -y, z'
  3  '-x, y, z'
  4  'x, -y, z'
  5  'x, y+1/2, z+1/2'
  6  '-x, -y+1/2, z+1/2'
  7  '-x, y+1/2, z+1/2'
  8  'x, -y+1/2, z+1/2'
loop_
 _atom_site_type_symbol
 _atom_site_label
 _atom_site_symmetry_multiplicity
 _atom_site_fract_x
 _atom_site_fract_y
 _atom_site_fract_z
 _atom_site_occupancy
  Ac  Ac0  2  0.00000000  0.00000000  0.41794371  1
  Ag  Ag1  2  0.50000000  0.00000000  0.12976945  1
  Te  Te2  2  0.00000000  0.00000000  0.68844229  1
  O  O3  2  0.50000000  0.00000000  0.93445324  1
