# generated using pymatgen
data_Al2VMoRh2
_symmetry_space_group_name_H-M   Amm2
_cell_length_a   4.16948144
_cell_length_b   4.11586108
_cell_length_c   10.00893160
_cell_angle_alpha   90.00000000
_cell_angle_beta   90.00000000
_cell_angle_gamma   90.00000000
_symmetry_Int_Tables_number   38
_chemical_formula_structural   Al2VMoRh2
_chemical_formula_sum   'Al4 V2 Mo2 Rh4'
_cell_volume   171.76333878
_cell_formula_units_Z   2
loop_
 _symmetry_equiv_pos_site_id
 _symmetry_equiv_pos_as_xyz
  1  'x, y, z'
  2  '-x, -y, z'
  3  '-x, y, z'
  4  'x, -y, z'
  5  'x, y+1/2, z+1/2'
  6  '-x, -y+1/2, z+1/2'
  7  '-x, y+1/2, z+1/2'
  8  'x, -y+1/2, z+1/2'
loop_
 _atom_site_type_symbol
 _atom_site_label
 _atom_site_symmetry_multiplicity
 _atom_site_fract_x
 _atom_site_fract_y
 _atom_site_fract_z
 _atom_site_occupancy
  Al  Al0  2  0.50000000  0.00000000  0.10239697  1
  Al  Al1  2  0.50000000  0.00000000  0.79612896  1
  V  V2  2  0.00000000  0.00000000  0.62365034  1
  Mo  Mo3  2  0.00000000  0.00000000  0.27290758  1
  Rh  Rh4  2  0.00000000  0.00000000  0.95403032  1
  Rh  Rh5  2  0.50000000  0.00000000  0.45150591  1
