# generated using pymatgen
data_AlAu
_symmetry_space_group_name_H-M   P-1
_cell_length_a   3.28138663
_cell_length_b   4.53058386
_cell_length_c   4.82449116
_cell_angle_alpha   81.63415610
_cell_angle_beta   76.63601775
_cell_angle_gamma   84.13727954
_symmetry_Int_Tables_number   2
_chemical_formula_structural   AlAu
_chemical_formula_sum   'Al2 Au2'
_cell_volume   68.86393400
_cell_formula_units_Z   2
loop_
 _symmetry_equiv_pos_site_id
 _symmetry_equiv_pos_as_xyz
  1  'x, y, z'
  2  '-x, -y, -z'
loop_
 _atom_site_type_symbol
 _atom_site_label
 _atom_site_symmetry_multiplicity
 _atom_site_fract_x
 _atom_site_fract_y
 _atom_site_fract_z
 _atom_site_occupancy
  Al  Al0  2  0.13511746  0.84146923  0.74951407  1
  Au  Au1  2  0.37830005  0.67630095  0.23888905  1
