# generated using pymatgen
data_AlFeO4
_symmetry_space_group_name_H-M   P222
_cell_length_a   3.99367208
_cell_length_b   4.18027547
_cell_length_c   4.34048336
_cell_angle_alpha   90.00000000
_cell_angle_beta   90.00000000
_cell_angle_gamma   90.00000000
_symmetry_Int_Tables_number   16
_chemical_formula_structural   AlFeO4
_chemical_formula_sum   'Al1 Fe1 O4'
_cell_volume   72.46284811
_cell_formula_units_Z   1
loop_
 _symmetry_equiv_pos_site_id
 _symmetry_equiv_pos_as_xyz
  1  'x, y, z'
  2  '-x, -y, z'
  3  'x, -y, -z'
  4  '-x, y, -z'
loop_
 _atom_site_type_symbol
 _atom_site_label
 _atom_site_symmetry_multiplicity
 _atom_site_fract_x
 _atom_site_fract_y
 _atom_site_fract_z
 _atom_site_occupancy
  Al  Al0  1  0.50000000  0.00000000  0.00000000  1
  Fe  Fe1  1  0.00000000  0.50000000  0.50000000  1
  O  O2  4  0.25204939  0.24403985  0.75859653  1
