# generated using pymatgen
data_B6PRh10
_symmetry_space_group_name_H-M   P1
_cell_length_a   5.22293096
_cell_length_b   6.49482703
_cell_length_c   6.76205420
_cell_angle_alpha   93.67368296
_cell_angle_beta   112.44385795
_cell_angle_gamma   107.09511801
_symmetry_Int_Tables_number   1
_chemical_formula_structural   B6PRh10
_chemical_formula_sum   'B6 P1 Rh10'
_cell_volume   198.56463453
_cell_formula_units_Z   1
loop_
 _symmetry_equiv_pos_site_id
 _symmetry_equiv_pos_as_xyz
  1  'x, y, z'
loop_
 _atom_site_type_symbol
 _atom_site_label
 _atom_site_symmetry_multiplicity
 _atom_site_fract_x
 _atom_site_fract_y
 _atom_site_fract_z
 _atom_site_occupancy
  B  B0  1  0.30917161  0.55613948  0.89406612  1
  B  B1  1  0.31583667  0.10829255  0.17617561  1
  B  B2  1  0.34497355  0.04961045  0.76922066  1
  B  B3  1  0.70779413  0.17173957  0.58971235  1
  B  B4  1  0.94390577  0.95802531  0.15961246  1
  B  B5  1  0.97149920  0.48506063  0.08618447  1
  P  P6  1  0.69211461  0.68382577  0.55199181  1
  Rh  Rh7  1  0.09709764  0.23578147  0.89588005  1
  Rh  Rh8  1  0.10289051  0.79012588  0.93215395  1
  Rh  Rh9  1  0.28641223  0.39238287  0.32306466  1
  Rh  Rh10  1  0.35584242  0.89313025  0.39404343  1
  Rh  Rh11  1  0.55975286  0.81833169  0.81367270  1
  Rh  Rh12  1  0.58313677  0.37921762  0.77087886  1
  Rh  Rh13  1  0.68260827  0.17011544  0.11529347  1
  Rh  Rh14  1  0.71742763  0.63410038  0.17855045  1
  Rh  Rh15  1  0.95301708  0.00464754  0.49378827  1
  Rh  Rh16  1  0.96855406  0.46791014  0.55943816  1
