# generated using pymatgen
data_Ba2LaCeMgZnN4F
_symmetry_space_group_name_H-M   Cm
_cell_length_a   14.27334518
_cell_length_b   3.89461105
_cell_length_c   7.66337614
_cell_angle_alpha   90.00000000
_cell_angle_beta   106.24197913
_cell_angle_gamma   90.00000000
_symmetry_Int_Tables_number   8
_chemical_formula_structural   Ba2LaCeMgZnN4F
_chemical_formula_sum   'Ba4 La2 Ce2 Mg2 Zn2 N8 F2'
_cell_volume   408.99830212
_cell_formula_units_Z   2
loop_
 _symmetry_equiv_pos_site_id
 _symmetry_equiv_pos_as_xyz
  1  'x, y, z'
  2  'x, -y, z'
  3  'x+1/2, y+1/2, z'
  4  'x+1/2, -y+1/2, z'
loop_
 _atom_site_type_symbol
 _atom_site_label
 _atom_site_symmetry_multiplicity
 _atom_site_fract_x
 _atom_site_fract_y
 _atom_site_fract_z
 _atom_site_occupancy
  Ba  Ba0  2  0.08607630  0.50000000  0.93169768  1
  Ba  Ba1  2  0.29654724  0.00000000  0.78864587  1
  La  La2  2  0.29933762  0.00000000  0.30378101  1
  Ce  Ce3  2  0.10076681  0.50000000  0.42039866  1
  Mg  Mg4  2  0.46514719  0.50000000  0.14189791  1
  Zn  Zn5  2  0.44680093  0.50000000  0.61316245  1
  N  N6  2  0.08578836  0.00000000  0.62380210  1
  N  N7  2  0.12385499  0.00000000  0.23810634  1
  N  N8  2  0.30185578  0.50000000  0.50615840  1
  N  N9  2  0.45044153  0.00000000  0.20694725  1
  F  F10  2  0.27892479  0.50000000  0.04212693  1
