# generated using pymatgen
data_Ba2TbMgTlAu
_symmetry_space_group_name_H-M   Pmm2
_cell_length_a   4.63236003
_cell_length_b   5.15526671
_cell_length_c   8.54486271
_cell_angle_alpha   90.00000000
_cell_angle_beta   90.00000000
_cell_angle_gamma   90.00000000
_symmetry_Int_Tables_number   25
_chemical_formula_structural   Ba2TbMgTlAu
_chemical_formula_sum   'Ba2 Tb1 Mg1 Tl1 Au1'
_cell_volume   204.06030595
_cell_formula_units_Z   1
loop_
 _symmetry_equiv_pos_site_id
 _symmetry_equiv_pos_as_xyz
  1  'x, y, z'
  2  '-x, -y, z'
  3  '-x, y, z'
  4  'x, -y, z'
loop_
 _atom_site_type_symbol
 _atom_site_label
 _atom_site_symmetry_multiplicity
 _atom_site_fract_x
 _atom_site_fract_y
 _atom_site_fract_z
 _atom_site_occupancy
  Ba  Ba0  1  0.00000000  0.50000000  0.46051454  1
  Ba  Ba1  1  0.50000000  0.00000000  0.75861468  1
  Tb  Tb2  1  0.00000000  0.00000000  0.12420821  1
  Mg  Mg3  1  0.50000000  0.50000000  0.13096571  1
  Tl  Tl4  1  0.00000000  0.50000000  0.89964662  1
  Au  Au5  1  0.50000000  0.00000000  0.33200122  1
