# generated using pymatgen
data_Ba2Zr2O5
_symmetry_space_group_name_H-M   Cmm2
_cell_length_a   8.46503460
_cell_length_b   8.47170409
_cell_length_c   4.22965804
_cell_angle_alpha   90.00000000
_cell_angle_beta   90.00000000
_cell_angle_gamma   90.00000000
_symmetry_Int_Tables_number   35
_chemical_formula_structural   Ba2Zr2O5
_chemical_formula_sum   'Ba4 Zr4 O10'
_cell_volume   303.32260136
_cell_formula_units_Z   2
loop_
 _symmetry_equiv_pos_site_id
 _symmetry_equiv_pos_as_xyz
  1  'x, y, z'
  2  '-x, -y, z'
  3  '-x, y, z'
  4  'x, -y, z'
  5  'x+1/2, y+1/2, z'
  6  '-x+1/2, -y+1/2, z'
  7  '-x+1/2, y+1/2, z'
  8  'x+1/2, -y+1/2, z'
loop_
 _atom_site_type_symbol
 _atom_site_label
 _atom_site_symmetry_multiplicity
 _atom_site_fract_x
 _atom_site_fract_y
 _atom_site_fract_z
 _atom_site_occupancy
  Ba  Ba0  4  0.24485624  0.00000000  0.10858571  1
  Zr  Zr1  4  0.00000000  0.25342911  0.60722862  1
  O  O2  4  0.00000000  0.23781528  0.11800116  1
  O  O3  4  0.25000000  0.25000000  0.61269859  1
  O  O4  2  0.00000000  0.50000000  0.63756018  1
