# generated using pymatgen
data_Ba3NaU3As3PS3
_symmetry_space_group_name_H-M   P1
_cell_length_a   7.40645213
_cell_length_b   7.47477393
_cell_length_c   7.53733694
_cell_angle_alpha   98.74448860
_cell_angle_beta   99.40335396
_cell_angle_gamma   100.49487378
_symmetry_Int_Tables_number   1
_chemical_formula_structural   Ba3NaU3As3PS3
_chemical_formula_sum   'Ba3 Na1 U3 As3 P1 S3'
_cell_volume   397.61354995
_cell_formula_units_Z   1
loop_
 _symmetry_equiv_pos_site_id
 _symmetry_equiv_pos_as_xyz
  1  'x, y, z'
loop_
 _atom_site_type_symbol
 _atom_site_label
 _atom_site_symmetry_multiplicity
 _atom_site_fract_x
 _atom_site_fract_y
 _atom_site_fract_z
 _atom_site_occupancy
  Ba  Ba0  1  0.38804461  0.93725249  0.42996728  1
  Ba  Ba1  1  0.85067656  0.80149044  0.16697958  1
  Ba  Ba2  1  0.97812483  0.08443972  0.71871787  1
  Na  Na3  1  0.10295621  0.38494907  0.27899427  1
  U  U4  1  0.25572968  0.63678205  0.86940051  1
  U  U5  1  0.55887014  0.22904428  0.00009001  1
  U  U6  1  0.68614402  0.51090695  0.58384434  1
  As  As7  1  0.46422657  0.54642808  0.21039695  1
  As  As8  1  0.59533864  0.84675807  0.79601240  1
  As  As9  1  0.75087064  0.19651501  0.34742116  1
  P  P10  1  0.88711470  0.44739674  0.90337393  1
  S  S11  1  0.03611962  0.69365722  0.54926271  1
  S  S12  1  0.23548970  0.98188302  0.03900562  1
  S  S13  1  0.36978904  0.32932981  0.69004594  1
