# generated using pymatgen
data_Ba7Pd3Pb4
_symmetry_space_group_name_H-M   P1
_cell_length_a   6.36291760
_cell_length_b   7.71111490
_cell_length_c   11.19790459
_cell_angle_alpha   89.63555784
_cell_angle_beta   87.21866892
_cell_angle_gamma   77.27933072
_symmetry_Int_Tables_number   1
_chemical_formula_structural   Ba7Pd3Pb4
_chemical_formula_sum   'Ba7 Pd3 Pb4'
_cell_volume   535.30509158
_cell_formula_units_Z   1
loop_
 _symmetry_equiv_pos_site_id
 _symmetry_equiv_pos_as_xyz
  1  'x, y, z'
loop_
 _atom_site_type_symbol
 _atom_site_label
 _atom_site_symmetry_multiplicity
 _atom_site_fract_x
 _atom_site_fract_y
 _atom_site_fract_z
 _atom_site_occupancy
  Ba  Ba0  1  0.08532719  0.67507147  0.76591320  1
  Ba  Ba1  1  0.21243180  0.36512283  0.06036222  1
  Ba  Ba2  1  0.46557168  0.93912578  0.61363606  1
  Ba  Ba3  1  0.54922476  0.67095390  0.29642448  1
  Ba  Ba4  1  0.74989447  0.25575560  0.81540328  1
  Ba  Ba5  1  0.97104995  0.92695193  0.11046101  1
  Ba  Ba6  1  0.97968358  0.23921266  0.42052036  1
  Pd  Pd7  1  0.27950954  0.01296187  0.88826304  1
  Pd  Pd8  1  0.70946746  0.35623591  0.11164591  1
  Pd  Pd9  1  0.74289903  0.56742589  0.57239004  1
  Pb  Pb10  1  0.02960192  0.75083711  0.44998219  1
  Pb  Pb11  1  0.40177913  0.40106256  0.54384900  1
  Pb  Pb12  1  0.51724755  0.15645013  0.29550154  1
  Pb  Pb13  1  0.58161443  0.69205259  0.95718395  1
