# generated using pymatgen
data_BaCdHgGe
_symmetry_space_group_name_H-M   Cm
_cell_length_a   8.05770652
_cell_length_b   6.54167102
_cell_length_c   4.99803368
_cell_angle_alpha   90.00000000
_cell_angle_beta   90.72117337
_cell_angle_gamma   90.00000000
_symmetry_Int_Tables_number   8
_chemical_formula_structural   BaCdHgGe
_chemical_formula_sum   'Ba2 Cd2 Hg2 Ge2'
_cell_volume   263.42981135
_cell_formula_units_Z   2
loop_
 _symmetry_equiv_pos_site_id
 _symmetry_equiv_pos_as_xyz
  1  'x, y, z'
  2  'x, -y, -z+67/479'
  3  'x, y, -z+67/479'
  4  'x, -y, z'
  5  'x+1/2, y+1/2, z'
  6  'x+1/2, -y+1/2, -z+67/479'
  7  'x+1/2, y+1/2, -z+67/479'
  8  'x+1/2, -y+1/2, z'
loop_
 _atom_site_type_symbol
 _atom_site_label
 _atom_site_symmetry_multiplicity
 _atom_site_fract_x
 _atom_site_fract_y
 _atom_site_fract_z
 _atom_site_occupancy
  Ba  Ba0  2  0.35068270  0.50000000  0.06993672  1
  Cd  Cd1  2  0.19046286  0.00000000  0.57772865  1
  Hg  Hg2  2  0.06296112  0.50000000  0.56468972  1
  Ge  Ge3  2  0.31343876  0.00000000  0.07993550  1
