# generated using pymatgen
data_BaCeSc2CuO7
_symmetry_space_group_name_H-M   P1
_cell_length_a   4.28633727
_cell_length_b   5.95933460
_cell_length_c   7.28435523
_cell_angle_alpha   65.91134124
_cell_angle_beta   87.74901923
_cell_angle_gamma   87.33280746
_symmetry_Int_Tables_number   1
_chemical_formula_structural   BaCeSc2CuO7
_chemical_formula_sum   'Ba1 Ce1 Sc2 Cu1 O7'
_cell_volume   169.63965144
_cell_formula_units_Z   1
loop_
 _symmetry_equiv_pos_site_id
 _symmetry_equiv_pos_as_xyz
  1  'x, y, z'
loop_
 _atom_site_type_symbol
 _atom_site_label
 _atom_site_symmetry_multiplicity
 _atom_site_fract_x
 _atom_site_fract_y
 _atom_site_fract_z
 _atom_site_occupancy
  Ba  Ba0  1  0.79581475  0.04927995  0.05281666  1
  Ce  Ce1  1  0.32782510  0.27517289  0.54613090  1
  Sc  Sc2  1  0.28123861  0.58478000  0.02433790  1
  Sc  Sc3  1  0.79676604  0.65394941  0.68347330  1
  Cu  Cu4  1  0.32415700  0.87976732  0.40514572  1
  O  O5  1  0.25826759  0.66318389  0.27029586  1
  O  O6  1  0.26845783  0.21733670  0.21099158  1
  O  O7  1  0.29051506  0.60312442  0.69063312  1
  O  O8  1  0.29465882  0.98645371  0.83840443  1
  O  O9  1  0.70003163  0.99073384  0.47701822  1
  O  O10  1  0.78296691  0.57745134  0.97584312  1
  O  O11  1  0.80771155  0.35243892  0.62288972  1
