# generated using pymatgen
data_BaDy2TaCoO8
_symmetry_space_group_name_H-M   P1
_cell_length_a   5.75290514
_cell_length_b   5.77421810
_cell_length_c   6.00720558
_cell_angle_alpha   80.74775680
_cell_angle_beta   85.92258149
_cell_angle_gamma   77.75557314
_symmetry_Int_Tables_number   1
_chemical_formula_structural   BaDy2TaCoO8
_chemical_formula_sum   'Ba1 Dy2 Ta1 Co1 O8'
_cell_volume   192.33231722
_cell_formula_units_Z   1
loop_
 _symmetry_equiv_pos_site_id
 _symmetry_equiv_pos_as_xyz
  1  'x, y, z'
loop_
 _atom_site_type_symbol
 _atom_site_label
 _atom_site_symmetry_multiplicity
 _atom_site_fract_x
 _atom_site_fract_y
 _atom_site_fract_z
 _atom_site_occupancy
  Ba  Ba0  1  0.05990153  0.83381957  0.42546917  1
  Dy  Dy1  1  0.03902996  0.27313972  0.85251674  1
  Dy  Dy2  1  0.51286089  0.23663985  0.36273671  1
  Ta  Ta3  1  0.53967360  0.86041320  0.02101094  1
  Co  Co4  1  0.58300747  0.59240978  0.63392288  1
  O  O5  1  0.27659074  0.11154429  0.13969892  1
  O  O6  1  0.32696465  0.45492889  0.63786305  1
  O  O7  1  0.36205935  0.96291750  0.74159614  1
  O  O8  1  0.40018030  0.59262427  0.14207833  1
  O  O9  1  0.62282187  0.81167752  0.37813352  1
  O  O10  1  0.76244234  0.08366708  0.04894116  1
  O  O11  1  0.79875429  0.64612337  0.85070769  1
  O  O12  1  0.82249472  0.29948763  0.54314866  1
