# generated using pymatgen
data_BaNa2GaNiAs2
_symmetry_space_group_name_H-M   P1
_cell_length_a   4.96410370
_cell_length_b   5.79330133
_cell_length_c   6.58348875
_cell_angle_alpha   76.55421907
_cell_angle_beta   83.52292282
_cell_angle_gamma   79.65576510
_symmetry_Int_Tables_number   1
_chemical_formula_structural   BaNa2GaNiAs2
_chemical_formula_sum   'Ba1 Na2 Ga1 Ni1 As2'
_cell_volume   180.64895878
_cell_formula_units_Z   1
loop_
 _symmetry_equiv_pos_site_id
 _symmetry_equiv_pos_as_xyz
  1  'x, y, z'
loop_
 _atom_site_type_symbol
 _atom_site_label
 _atom_site_symmetry_multiplicity
 _atom_site_fract_x
 _atom_site_fract_y
 _atom_site_fract_z
 _atom_site_occupancy
  Ba  Ba0  1  0.80413701  0.91045738  0.19482799  1
  Na  Na1  1  0.18988374  0.98339692  0.66629716  1
  Na  Na2  1  0.61868050  0.35897140  0.57444951  1
  Ga  Ga3  1  0.06140041  0.42441814  0.89452843  1
  Ni  Ni4  1  0.48680346  0.52361829  0.00135162  1
  As  As5  1  0.20730497  0.32787596  0.26612281  1
  As  As6  1  0.71726081  0.76959665  0.73557843  1
