# generated using pymatgen
data_BaNaTl2BiAu2S5ClF
_symmetry_space_group_name_H-M   P1
_cell_length_a   5.70120513
_cell_length_b   7.12148751
_cell_length_c   10.96850472
_cell_angle_alpha   98.02131194
_cell_angle_beta   102.56426732
_cell_angle_gamma   112.55077553
_symmetry_Int_Tables_number   1
_chemical_formula_structural   BaNaTl2BiAu2S5ClF
_chemical_formula_sum   'Ba1 Na1 Tl2 Bi1 Au2 S5 Cl1 F1'
_cell_volume   388.95966132
_cell_formula_units_Z   1
loop_
 _symmetry_equiv_pos_site_id
 _symmetry_equiv_pos_as_xyz
  1  'x, y, z'
loop_
 _atom_site_type_symbol
 _atom_site_label
 _atom_site_symmetry_multiplicity
 _atom_site_fract_x
 _atom_site_fract_y
 _atom_site_fract_z
 _atom_site_occupancy
  Ba  Ba0  1  0.51963928  0.36539019  0.82118400  1
  Na  Na1  1  0.81123206  0.94139304  0.82971458  1
  Tl  Tl2  1  0.31272283  0.80205562  0.08921742  1
  Tl  Tl3  1  0.85148544  0.78663403  0.42725165  1
  Bi  Bi4  1  0.12807089  0.27108450  0.21153885  1
  Au  Au5  1  0.09056751  0.57678049  0.74139613  1
  Au  Au6  1  0.73501989  0.20123780  0.44256103  1
  S  S7  1  0.10006114  0.38606156  0.99878402  1
  S  S8  1  0.31629161  0.91674716  0.86679031  1
  S  S9  1  0.61037251  0.20583303  0.22928026  1
  S  S10  1  0.87223347  0.21328031  0.65747230  1
  S  S11  1  0.87429096  0.85316584  0.09685357  1
  Cl  Cl12  1  0.54388419  0.61284155  0.60919865  1
  F  F13  1  0.38087868  0.65416180  0.28243682  1
