# generated using pymatgen
data_BaNaNiI2O
_symmetry_space_group_name_H-M   Cm
_cell_length_a   7.32187889
_cell_length_b   4.50396215
_cell_length_c   10.58176123
_cell_angle_alpha   90.00000000
_cell_angle_beta   99.79846160
_cell_angle_gamma   90.00000000
_symmetry_Int_Tables_number   8
_chemical_formula_structural   BaNaNiI2O
_chemical_formula_sum   'Ba2 Na2 Ni2 I4 O2'
_cell_volume   343.86920470
_cell_formula_units_Z   2
loop_
 _symmetry_equiv_pos_site_id
 _symmetry_equiv_pos_as_xyz
  1  'x, y, z'
  2  'x, -y, z'
  3  'x+1/2, y+1/2, z'
  4  'x+1/2, -y+1/2, z'
loop_
 _atom_site_type_symbol
 _atom_site_label
 _atom_site_symmetry_multiplicity
 _atom_site_fract_x
 _atom_site_fract_y
 _atom_site_fract_z
 _atom_site_occupancy
  Ba  Ba0  2  0.14100514  0.50000000  0.33384696  1
  Na  Na1  2  0.35035994  0.50000000  0.89380030  1
  Ni  Ni2  2  0.07988510  0.00000000  0.57494037  1
  I  I3  2  0.23748765  0.00000000  0.06930643  1
  I  I4  2  0.44975409  0.00000000  0.69100559  1
  O  O5  2  0.49735371  0.50000000  0.39449322  1
