# generated using pymatgen
data_BaNdNiO4
_symmetry_space_group_name_H-M   Cm
_cell_length_a   7.74188730
_cell_length_b   6.28642077
_cell_length_c   5.95948691
_cell_angle_alpha   90.00000000
_cell_angle_beta   118.44410679
_cell_angle_gamma   90.00000000
_symmetry_Int_Tables_number   8
_chemical_formula_structural   BaNdNiO4
_chemical_formula_sum   'Ba2 Nd2 Ni2 O8'
_cell_volume   255.02774422
_cell_formula_units_Z   2
loop_
 _symmetry_equiv_pos_site_id
 _symmetry_equiv_pos_as_xyz
  1  'x, y, z'
  2  'x, -y, z'
  3  'x+1/2, y+1/2, z'
  4  'x+1/2, -y+1/2, z'
loop_
 _atom_site_type_symbol
 _atom_site_label
 _atom_site_symmetry_multiplicity
 _atom_site_fract_x
 _atom_site_fract_y
 _atom_site_fract_z
 _atom_site_occupancy
  Ba  Ba0  2  0.13997582  0.50000000  0.72458824  1
  Nd  Nd1  2  0.08195490  0.00000000  0.33640181  1
  Ni  Ni2  2  0.29724848  0.00000000  0.04152098  1
  O  O3  4  0.38145354  0.77791095  0.28492596  1
  O  O4  2  0.02924278  0.00000000  0.91996964  1
  O  O5  2  0.32338208  0.00000000  0.75569589  1
