# generated using pymatgen
data_BaPb5Br14
_symmetry_space_group_name_H-M   P1
_cell_length_a   7.65439552
_cell_length_b   7.71272048
_cell_length_c   12.70992796
_cell_angle_alpha   86.18232155
_cell_angle_beta   88.63446396
_cell_angle_gamma   88.26938027
_symmetry_Int_Tables_number   1
_chemical_formula_structural   BaPb5Br14
_chemical_formula_sum   'Ba1 Pb5 Br14'
_cell_volume   748.16034913
_cell_formula_units_Z   1
loop_
 _symmetry_equiv_pos_site_id
 _symmetry_equiv_pos_as_xyz
  1  'x, y, z'
loop_
 _atom_site_type_symbol
 _atom_site_label
 _atom_site_symmetry_multiplicity
 _atom_site_fract_x
 _atom_site_fract_y
 _atom_site_fract_z
 _atom_site_occupancy
  Ba  Ba0  1  0.12338627  0.56243452  0.88484340  1
  Pb  Pb1  1  0.07930128  0.74812786  0.26872570  1
  Pb  Pb2  1  0.16259541  0.23016909  0.47620956  1
  Pb  Pb3  1  0.55011352  0.39022835  0.17519410  1
  Pb  Pb4  1  0.57439398  0.13068802  0.76566700  1
  Pb  Pb5  1  0.68665299  0.64733250  0.57759486  1
  Br  Br6  1  0.19651550  0.97275749  0.80993554  1
  Br  Br7  1  0.27448416  0.10149432  0.27503792  1
  Br  Br8  1  0.35116856  0.69895988  0.09019958  1
  Br  Br9  1  0.36775207  0.55178471  0.38260006  1
  Br  Br10  1  0.36864774  0.45330647  0.67761021  1
  Br  Br11  1  0.43692741  0.28039885  0.97207736  1
  Br  Br12  1  0.48823995  0.00797822  0.55833722  1
  Br  Br13  1  0.74089679  0.76258240  0.78970238  1
  Br  Br14  1  0.80562422  0.03353523  0.14461503  1
  Br  Br15  1  0.85900823  0.44040798  0.38244901  1
  Br  Br16  1  0.87340583  0.54492902  0.09049189  1
  Br  Br17  1  0.89125961  0.33972688  0.69216605  1
  Br  Br18  1  0.97717666  0.88250411  0.48664218  1
  Br  Br19  1  0.99686122  0.02259931  0.98063280  1
