# generated using pymatgen
data_BaSmH3
_symmetry_space_group_name_H-M   Amm2
_cell_length_a   3.60387119
_cell_length_b   3.51383759
_cell_length_c   13.22033878
_cell_angle_alpha   90.00000000
_cell_angle_beta   90.00000000
_cell_angle_gamma   90.00000000
_symmetry_Int_Tables_number   38
_chemical_formula_structural   BaSmH3
_chemical_formula_sum   'Ba2 Sm2 H6'
_cell_volume   167.41467639
_cell_formula_units_Z   2
loop_
 _symmetry_equiv_pos_site_id
 _symmetry_equiv_pos_as_xyz
  1  'x, y, z'
  2  '-x, -y, z'
  3  '-x, y, z'
  4  'x, -y, z'
  5  'x, y+1/2, z+1/2'
  6  '-x, -y+1/2, z+1/2'
  7  '-x, y+1/2, z+1/2'
  8  'x, -y+1/2, z+1/2'
loop_
 _atom_site_type_symbol
 _atom_site_label
 _atom_site_symmetry_multiplicity
 _atom_site_fract_x
 _atom_site_fract_y
 _atom_site_fract_z
 _atom_site_occupancy
  Ba  Ba0  2  0.00000000  0.00000000  0.39529148  1
  Sm  Sm1  2  0.50000000  0.00000000  0.13405493  1
  H  H2  2  0.00000000  0.00000000  0.60289141  1
  H  H3  2  0.50000000  0.00000000  0.76568904  1
  H  H4  2  0.50000000  0.00000000  0.96355014  1
