# generated using pymatgen
data_BaTaClO5
_symmetry_space_group_name_H-M   Cm
_cell_length_a   6.90217480
_cell_length_b   6.63833655
_cell_length_c   5.92128866
_cell_angle_alpha   90.00000000
_cell_angle_beta   91.50581358
_cell_angle_gamma   90.00000000
_symmetry_Int_Tables_number   8
_chemical_formula_structural   BaTaClO5
_chemical_formula_sum   'Ba2 Ta2 Cl2 O10'
_cell_volume   271.21359142
_cell_formula_units_Z   2
loop_
 _symmetry_equiv_pos_site_id
 _symmetry_equiv_pos_as_xyz
  1  'x, y, z'
  2  'x, -y, z'
  3  'x+1/2, y+1/2, z'
  4  'x+1/2, -y+1/2, z'
loop_
 _atom_site_type_symbol
 _atom_site_label
 _atom_site_symmetry_multiplicity
 _atom_site_fract_x
 _atom_site_fract_y
 _atom_site_fract_z
 _atom_site_occupancy
  Ba  Ba0  2  0.32360947  0.00000000  0.39947991  1
  Ta  Ta1  2  0.41746193  0.50000000  0.87665872  1
  Cl  Cl2  2  0.28940621  0.50000000  0.42607956  1
  O  O3  4  0.00486652  0.18017567  0.12525795  1
  O  O4  4  0.03354673  0.21370686  0.69643054  1
  O  O5  2  0.14687754  0.50000000  0.90382071  1
