# generated using pymatgen
data_BaThCl6
_symmetry_space_group_name_H-M   C2
_cell_length_a   6.41283580
_cell_length_b   9.45587312
_cell_length_c   7.67874729
_cell_angle_alpha   90.00000000
_cell_angle_beta   99.55874224
_cell_angle_gamma   90.00000000
_symmetry_Int_Tables_number   5
_chemical_formula_structural   BaThCl6
_chemical_formula_sum   'Ba2 Th2 Cl12'
_cell_volume   459.16637720
_cell_formula_units_Z   2
loop_
 _symmetry_equiv_pos_site_id
 _symmetry_equiv_pos_as_xyz
  1  'x, y, z'
  2  '-x, y, -z'
  3  'x+1/2, y+1/2, z'
  4  '-x+1/2, y+1/2, -z'
loop_
 _atom_site_type_symbol
 _atom_site_label
 _atom_site_symmetry_multiplicity
 _atom_site_fract_x
 _atom_site_fract_y
 _atom_site_fract_z
 _atom_site_occupancy
  Ba  Ba0  2  0.00000000  0.02528438  0.00000000  1
  Th  Th1  2  0.00000000  0.75034063  0.50000000  1
  Cl  Cl2  4  0.18518818  0.69576760  0.21153498  1
  Cl  Cl3  4  0.21014025  0.33160845  0.21312801  1
  Cl  Cl4  4  0.23000164  0.00905396  0.39839245  1
