# generated using pymatgen
data_BaTl
_symmetry_space_group_name_H-M   P1
_cell_length_a   6.32353554
_cell_length_b   6.48728173
_cell_length_c   6.61052774
_cell_angle_alpha   68.94427185
_cell_angle_beta   85.36002377
_cell_angle_gamma   85.97712727
_symmetry_Int_Tables_number   1
_chemical_formula_structural   BaTl
_chemical_formula_sum   'Ba3 Tl3'
_cell_volume   251.99873925
_cell_formula_units_Z   3
loop_
 _symmetry_equiv_pos_site_id
 _symmetry_equiv_pos_as_xyz
  1  'x, y, z'
loop_
 _atom_site_type_symbol
 _atom_site_label
 _atom_site_symmetry_multiplicity
 _atom_site_fract_x
 _atom_site_fract_y
 _atom_site_fract_z
 _atom_site_occupancy
  Ba  Ba0  1  0.02342165  0.17470215  0.23893185  1
  Ba  Ba1  1  0.43734729  0.35225638  0.71127273  1
  Ba  Ba2  1  0.85725627  0.82523284  0.88320526  1
  Tl  Tl3  1  0.35113658  0.66496321  0.12914028  1
  Tl  Tl4  1  0.52382572  0.93641024  0.40541874  1
  Tl  Tl5  1  0.93953465  0.56804699  0.49296954  1
