# generated using pymatgen
data_BaYF3
_symmetry_space_group_name_H-M   P1
_cell_length_a   4.12709045
_cell_length_b   6.20623609
_cell_length_c   8.25090205
_cell_angle_alpha   96.97759850
_cell_angle_beta   90.00324955
_cell_angle_gamma   90.19394512
_symmetry_Int_Tables_number   1
_chemical_formula_structural   BaYF3
_chemical_formula_sum   'Ba2 Y2 F6'
_cell_volume   209.76967229
_cell_formula_units_Z   2
loop_
 _symmetry_equiv_pos_site_id
 _symmetry_equiv_pos_as_xyz
  1  'x, y, z'
loop_
 _atom_site_type_symbol
 _atom_site_label
 _atom_site_symmetry_multiplicity
 _atom_site_fract_x
 _atom_site_fract_y
 _atom_site_fract_z
 _atom_site_occupancy
  Ba  Ba0  1  0.45910891  0.27903853  0.07398841  1
  Ba  Ba1  1  0.47252596  0.26439088  0.57717403  1
  Y  Y2  1  0.95919990  0.81987747  0.80495753  1
  Y  Y3  1  0.96936798  0.82309195  0.29775391  1
  F  F4  1  0.45968369  0.95261029  0.80810836  1
  F  F5  1  0.47062841  0.95500498  0.30357952  1
  F  F6  1  0.95807871  0.21084425  0.82940988  1
  F  F7  1  0.96205837  0.96564725  0.06382619  1
  F  F8  1  0.96855042  0.93814928  0.56177411  1
  F  F9  1  0.97565393  0.21251147  0.34595173  1
