# generated using pymatgen
data_Be5Fe3
_symmetry_space_group_name_H-M   P2/m
_cell_length_a   4.48960371
_cell_length_b   3.54565681
_cell_length_c   4.52715205
_cell_angle_alpha   90.00000000
_cell_angle_beta   102.63519826
_cell_angle_gamma   90.00000000
_symmetry_Int_Tables_number   10
_chemical_formula_structural   Be5Fe3
_chemical_formula_sum   'Be5 Fe3'
_cell_volume   70.32064438
_cell_formula_units_Z   1
loop_
 _symmetry_equiv_pos_site_id
 _symmetry_equiv_pos_as_xyz
  1  'x, y, z'
  2  '-x, -y, -z'
  3  '-x, y, -z'
  4  'x, -y, z'
loop_
 _atom_site_type_symbol
 _atom_site_label
 _atom_site_symmetry_multiplicity
 _atom_site_fract_x
 _atom_site_fract_y
 _atom_site_fract_z
 _atom_site_occupancy
  Be  Be0  2  0.24718952  0.50000000  0.37058032  1
  Be  Be1  2  0.25486214  0.50000000  0.88117939  1
  Be  Be2  1  0.00000000  0.00000000  0.50000000  1
  Fe  Fe3  2  0.49209508  0.00000000  0.73838220  1
  Fe  Fe4  1  0.00000000  0.00000000  0.00000000  1
