# generated using pymatgen
data_BiPtO3
_symmetry_space_group_name_H-M   Cm
_cell_length_a   6.79457092
_cell_length_b   3.85644874
_cell_length_c   5.95094939
_cell_angle_alpha   90.00000000
_cell_angle_beta   103.73619353
_cell_angle_gamma   90.00000000
_symmetry_Int_Tables_number   8
_chemical_formula_structural   BiPtO3
_chemical_formula_sum   'Bi2 Pt2 O6'
_cell_volume   151.47244962
_cell_formula_units_Z   2
loop_
 _symmetry_equiv_pos_site_id
 _symmetry_equiv_pos_as_xyz
  1  'x, y, z'
  2  'x, -y, z'
  3  'x+1/2, y+1/2, z'
  4  'x+1/2, -y+1/2, z'
loop_
 _atom_site_type_symbol
 _atom_site_label
 _atom_site_symmetry_multiplicity
 _atom_site_fract_x
 _atom_site_fract_y
 _atom_site_fract_z
 _atom_site_occupancy
  Bi  Bi0  2  0.35522865  0.00000000  0.22291529  1
  Pt  Pt1  2  0.37568224  0.50000000  0.70464706  1
  O  O2  2  0.00141380  0.00000000  0.04288397  1
  O  O3  2  0.23290044  0.50000000  0.36870470  1
  O  O4  2  0.38029866  0.00000000  0.66395102  1
