# generated using pymatgen
data_Ca2MgH2Br3
_symmetry_space_group_name_H-M   Cm
_cell_length_a   11.67518772
_cell_length_b   3.87528808
_cell_length_c   8.30404335
_cell_angle_alpha   90.00000000
_cell_angle_beta   93.78850826
_cell_angle_gamma   90.00000000
_symmetry_Int_Tables_number   8
_chemical_formula_structural   Ca2MgH2Br3
_chemical_formula_sum   'Ca4 Mg2 H4 Br6'
_cell_volume   374.89304822
_cell_formula_units_Z   2
loop_
 _symmetry_equiv_pos_site_id
 _symmetry_equiv_pos_as_xyz
  1  'x, y, z'
  2  'x, -y, z'
  3  'x+1/2, y+1/2, z'
  4  'x+1/2, -y+1/2, z'
loop_
 _atom_site_type_symbol
 _atom_site_label
 _atom_site_symmetry_multiplicity
 _atom_site_fract_x
 _atom_site_fract_y
 _atom_site_fract_z
 _atom_site_occupancy
  Ca  Ca0  2  0.44987652  0.00000000  0.38148885  1
  Ca  Ca1  2  0.47046754  0.50000000  0.99247872  1
  Mg  Mg2  2  0.21180492  0.50000000  0.16948669  1
  H  H3  2  0.04047274  0.50000000  0.12813628  1
  H  H4  2  0.37977944  0.50000000  0.23203144  1
  Br  Br5  2  0.18492654  0.00000000  0.39674316  1
  Br  Br6  2  0.22788237  0.00000000  0.93788386  1
  Br  Br7  2  0.43276642  0.50000000  0.64527699  1
