# generated using pymatgen
data_Ca2Mn2IrBr3O4
_symmetry_space_group_name_H-M   P1
_cell_length_a   5.76513917
_cell_length_b   6.56947900
_cell_length_c   7.00012311
_cell_angle_alpha   96.76626090
_cell_angle_beta   91.41074709
_cell_angle_gamma   108.08461713
_symmetry_Int_Tables_number   1
_chemical_formula_structural   Ca2Mn2IrBr3O4
_chemical_formula_sum   'Ca2 Mn2 Ir1 Br3 O4'
_cell_volume   249.74336210
_cell_formula_units_Z   1
loop_
 _symmetry_equiv_pos_site_id
 _symmetry_equiv_pos_as_xyz
  1  'x, y, z'
loop_
 _atom_site_type_symbol
 _atom_site_label
 _atom_site_symmetry_multiplicity
 _atom_site_fract_x
 _atom_site_fract_y
 _atom_site_fract_z
 _atom_site_occupancy
  Ca  Ca0  1  0.13315272  0.66605112  0.47946040  1
  Ca  Ca1  1  0.85669022  0.03612230  0.80435499  1
  Mn  Mn2  1  0.26150915  0.09306812  0.29757652  1
  Mn  Mn3  1  0.61802771  0.72723492  0.18184761  1
  Ir  Ir4  1  0.81223586  0.14148615  0.35596423  1
  Br  Br5  1  0.35260444  0.76420170  0.86721403  1
  Br  Br6  1  0.68329366  0.35530168  0.12061363  1
  Br  Br7  1  0.69489110  0.35989748  0.63810419  1
  O  O8  1  0.15824494  0.35589618  0.35516096  1
  O  O9  1  0.45555536  0.89369217  0.35864745  1
  O  O10  1  0.91670515  0.97196647  0.11693605  1
  O  O11  1  0.95431717  0.94499491  0.50464453  1
