# generated using pymatgen
data_Ca3NdAg3As4Pt
_symmetry_space_group_name_H-M   Cm
_cell_length_a   8.24163683
_cell_length_b   8.82383804
_cell_length_c   7.58971642
_cell_angle_alpha   90.00000000
_cell_angle_beta   90.22759992
_cell_angle_gamma   90.00000000
_symmetry_Int_Tables_number   8
_chemical_formula_structural   Ca3NdAg3As4Pt
_chemical_formula_sum   'Ca6 Nd2 Ag6 As8 Pt2'
_cell_volume   551.94159516
_cell_formula_units_Z   2
loop_
 _symmetry_equiv_pos_site_id
 _symmetry_equiv_pos_as_xyz
  1  'x, y, z'
  2  'x, -y, z'
  3  'x+1/2, y+1/2, z'
  4  'x+1/2, -y+1/2, z'
loop_
 _atom_site_type_symbol
 _atom_site_label
 _atom_site_symmetry_multiplicity
 _atom_site_fract_x
 _atom_site_fract_y
 _atom_site_fract_z
 _atom_site_occupancy
  Ca  Ca0  4  0.01679828  0.24634463  0.98706775  1
  Ca  Ca1  2  0.01741130  0.50000000  0.49611578  1
  Nd  Nd2  2  0.00609926  0.00000000  0.50251380  1
  Ag  Ag3  4  0.26032276  0.25287679  0.32305920  1
  Ag  Ag4  2  0.27202118  0.00000000  0.82552362  1
  As  As5  4  0.25535058  0.25025823  0.65989570  1
  As  As6  2  0.26361701  0.00000000  0.16220749  1
  As  As7  2  0.27835135  0.50000000  0.15208547  1
  Pt  Pt8  2  0.26458086  0.50000000  0.82344863  1
