# generated using pymatgen
data_Ca5Mg2Ni7
_symmetry_space_group_name_H-M   P1
_cell_length_a   6.79204745
_cell_length_b   7.26845924
_cell_length_c   7.50024828
_cell_angle_alpha   63.58858399
_cell_angle_beta   64.79715013
_cell_angle_gamma   65.04379985
_symmetry_Int_Tables_number   1
_chemical_formula_structural   Ca5Mg2Ni7
_chemical_formula_sum   'Ca5 Mg2 Ni7'
_cell_volume   287.43777918
_cell_formula_units_Z   1
loop_
 _symmetry_equiv_pos_site_id
 _symmetry_equiv_pos_as_xyz
  1  'x, y, z'
loop_
 _atom_site_type_symbol
 _atom_site_label
 _atom_site_symmetry_multiplicity
 _atom_site_fract_x
 _atom_site_fract_y
 _atom_site_fract_z
 _atom_site_occupancy
  Ca  Ca0  1  0.00152089  0.88423630  0.77876394  1
  Ca  Ca1  1  0.09980200  0.96373982  0.17755744  1
  Ca  Ca2  1  0.41457728  0.32765495  0.83543363  1
  Ca  Ca3  1  0.58540126  0.87916448  0.61598339  1
  Ca  Ca4  1  0.91470604  0.50669134  0.32183060  1
  Mg  Mg5  1  0.45989935  0.39735389  0.32789786  1
  Mg  Mg6  1  0.80813371  0.42180330  0.91165876  1
  Ni  Ni7  1  0.10174774  0.59748978  0.57123202  1
  Ni  Ni8  1  0.15332089  0.23977852  0.65659097  1
  Ni  Ni9  1  0.28030090  0.11789801  0.37060198  1
  Ni  Ni10  1  0.35940062  0.63297043  0.99312778  1
  Ni  Ni11  1  0.41039349  0.74440842  0.41488919  1
  Ni  Ni12  1  0.58917815  0.75430471  0.05894215  1
  Ni  Ni13  1  0.64044570  0.99677242  0.16180693  1
