# generated using pymatgen
data_CaLaMgS3
_symmetry_space_group_name_H-M   P1
_cell_length_a   4.43163489
_cell_length_b   4.47991533
_cell_length_c   9.05226971
_cell_angle_alpha   78.67358333
_cell_angle_beta   76.75450727
_cell_angle_gamma   71.71202604
_symmetry_Int_Tables_number   1
_chemical_formula_structural   CaLaMgS3
_chemical_formula_sum   'Ca1 La1 Mg1 S3'
_cell_volume   164.58712639
_cell_formula_units_Z   1
loop_
 _symmetry_equiv_pos_site_id
 _symmetry_equiv_pos_as_xyz
  1  'x, y, z'
loop_
 _atom_site_type_symbol
 _atom_site_label
 _atom_site_symmetry_multiplicity
 _atom_site_fract_x
 _atom_site_fract_y
 _atom_site_fract_z
 _atom_site_occupancy
  Ca  Ca0  1  0.97886667  0.57374191  0.84150536  1
  La  La1  1  0.75260316  0.30030219  0.48106236  1
  Mg  Mg2  1  0.49774687  0.13013120  0.13278956  1
  S  S3  1  0.11590038  0.67415529  0.52409681  1
  S  S4  1  0.59937144  0.19068823  0.83837129  1
  S  S5  1  0.85299364  0.48026809  0.15675121  1
