# generated using pymatgen
data_CaMgIn
_symmetry_space_group_name_H-M   Pmmn
_cell_length_a   4.33677302
_cell_length_b   4.75500483
_cell_length_c   8.21308195
_cell_angle_alpha   90.00000000
_cell_angle_beta   90.00000000
_cell_angle_gamma   90.00000000
_symmetry_Int_Tables_number   59
_chemical_formula_structural   CaMgIn
_chemical_formula_sum   'Ca2 Mg2 In2'
_cell_volume   169.36505601
_cell_formula_units_Z   2
loop_
 _symmetry_equiv_pos_site_id
 _symmetry_equiv_pos_as_xyz
  1  'x, y, z'
  2  '-x, -y, z'
  3  'x+1/2, -y+1/2, -z'
  4  '-x+1/2, y+1/2, -z'
  5  '-x+1/2, -y+1/2, -z'
  6  'x+1/2, y+1/2, -z'
  7  '-x, y, z'
  8  'x, -y, z'
loop_
 _atom_site_type_symbol
 _atom_site_label
 _atom_site_symmetry_multiplicity
 _atom_site_fract_x
 _atom_site_fract_y
 _atom_site_fract_z
 _atom_site_occupancy
  Ca  Ca0  2  0.00000000  0.50000000  0.15503640  1
  Mg  Mg1  2  0.00000000  0.00000000  0.50857459  1
  In  In2  2  0.00000000  0.50000000  0.74506945  1
