# generated using pymatgen
data_CaMgCdSn
_symmetry_space_group_name_H-M   Cm
_cell_length_a   9.26651937
_cell_length_b   3.71428604
_cell_length_c   6.54040123
_cell_angle_alpha   90.00000000
_cell_angle_beta   101.50539884
_cell_angle_gamma   90.00000000
_symmetry_Int_Tables_number   8
_chemical_formula_structural   CaMgCdSn
_chemical_formula_sum   'Ca2 Mg2 Cd2 Sn2'
_cell_volume   220.58742692
_cell_formula_units_Z   2
loop_
 _symmetry_equiv_pos_site_id
 _symmetry_equiv_pos_as_xyz
  1  'x, y, z'
  2  'x, -y, z'
  3  'x+1/2, y+1/2, z'
  4  'x+1/2, -y+1/2, z'
loop_
 _atom_site_type_symbol
 _atom_site_label
 _atom_site_symmetry_multiplicity
 _atom_site_fract_x
 _atom_site_fract_y
 _atom_site_fract_z
 _atom_site_occupancy
  Ca  Ca0  2  0.37650487  0.00000000  0.38458736  1
  Mg  Mg1  2  0.37922555  0.50000000  0.88667334  1
  Cd  Cd2  2  0.13070488  0.00000000  0.67870823  1
  Sn  Sn3  2  0.12230591  0.50000000  0.09789392  1
