# generated using pymatgen
data_CaMn2O4
_symmetry_space_group_name_H-M   P-1
_cell_length_a   3.31602231
_cell_length_b   5.08316811
_cell_length_c   5.93519171
_cell_angle_alpha   67.97045487
_cell_angle_beta   80.02867360
_cell_angle_gamma   82.55925099
_symmetry_Int_Tables_number   2
_chemical_formula_structural   CaMn2O4
_chemical_formula_sum   'Ca1 Mn2 O4'
_cell_volume   91.10944856
_cell_formula_units_Z   1
loop_
 _symmetry_equiv_pos_site_id
 _symmetry_equiv_pos_as_xyz
  1  'x, y, z'
  2  '-x, -y, -z'
loop_
 _atom_site_type_symbol
 _atom_site_label
 _atom_site_symmetry_multiplicity
 _atom_site_fract_x
 _atom_site_fract_y
 _atom_site_fract_z
 _atom_site_occupancy
  Ca  Ca0  1  0.00000000  0.50000000  0.50000000  1
  Mn  Mn1  2  0.29988881  0.77947895  0.96096156  1
  O  O2  2  0.14483489  0.96921659  0.19895306  1
  O  O3  2  0.40461223  0.52052774  0.78507204  1
