# generated using pymatgen
data_CaSnO2
_symmetry_space_group_name_H-M   Pm
_cell_length_a   4.87696391
_cell_length_b   4.75596235
_cell_length_c   5.67940545
_cell_angle_alpha   90.00000000
_cell_angle_beta   93.73631850
_cell_angle_gamma   90.00000000
_symmetry_Int_Tables_number   6
_chemical_formula_structural   CaSnO2
_chemical_formula_sum   'Ca2 Sn2 O4'
_cell_volume   131.45186545
_cell_formula_units_Z   2
loop_
 _symmetry_equiv_pos_site_id
 _symmetry_equiv_pos_as_xyz
  1  'x, y, z'
  2  'x, -y, z'
loop_
 _atom_site_type_symbol
 _atom_site_label
 _atom_site_symmetry_multiplicity
 _atom_site_fract_x
 _atom_site_fract_y
 _atom_site_fract_z
 _atom_site_occupancy
  Ca  Ca0  1  0.01693746  0.00000000  0.01431419  1
  Ca  Ca1  1  0.06074333  0.50000000  0.44196351  1
  Sn  Sn2  1  0.51750003  0.50000000  0.98860555  1
  Sn  Sn3  1  0.56838007  0.00000000  0.46752510  1
  O  O4  1  0.01136859  0.00000000  0.42917845  1
  O  O5  1  0.02363227  0.50000000  0.02780134  1
  O  O6  1  0.51240566  0.00000000  0.08949053  1
  O  O7  1  0.55328311  0.50000000  0.36636076  1
