# generated using pymatgen
data_CaTlHgF
_symmetry_space_group_name_H-M   P1
_cell_length_a   4.31088019
_cell_length_b   4.47250461
_cell_length_c   5.65088455
_cell_angle_alpha   75.22048131
_cell_angle_beta   89.49302459
_cell_angle_gamma   86.69503893
_symmetry_Int_Tables_number   1
_chemical_formula_structural   CaTlHgF
_chemical_formula_sum   'Ca1 Tl1 Hg1 F1'
_cell_volume   105.16964661
_cell_formula_units_Z   1
loop_
 _symmetry_equiv_pos_site_id
 _symmetry_equiv_pos_as_xyz
  1  'x, y, z'
loop_
 _atom_site_type_symbol
 _atom_site_label
 _atom_site_symmetry_multiplicity
 _atom_site_fract_x
 _atom_site_fract_y
 _atom_site_fract_z
 _atom_site_occupancy
  Ca  Ca0  1  0.86834872  0.25032207  0.92809710  1
  Tl  Tl1  1  0.37215212  0.98662228  0.51231114  1
  Hg  Hg2  1  0.88654233  0.58676572  0.34870927  1
  F  F3  1  0.36866394  0.25168533  0.96672394  1
