# generated using pymatgen
data_CaTlGe2F9
_symmetry_space_group_name_H-M   P1
_cell_length_a   4.88498427
_cell_length_b   4.99789160
_cell_length_c   9.50132286
_cell_angle_alpha   86.26709362
_cell_angle_beta   75.39206722
_cell_angle_gamma   86.20682480
_symmetry_Int_Tables_number   1
_chemical_formula_structural   CaTlGe2F9
_chemical_formula_sum   'Ca1 Tl1 Ge2 F9'
_cell_volume   223.69900811
_cell_formula_units_Z   1
loop_
 _symmetry_equiv_pos_site_id
 _symmetry_equiv_pos_as_xyz
  1  'x, y, z'
loop_
 _atom_site_type_symbol
 _atom_site_label
 _atom_site_symmetry_multiplicity
 _atom_site_fract_x
 _atom_site_fract_y
 _atom_site_fract_z
 _atom_site_occupancy
  Ca  Ca0  1  0.67391392  0.92296388  0.80425901  1
  Tl  Tl1  1  0.01049842  0.86087545  0.34319387  1
  Ge  Ge2  1  0.09758472  0.43888901  0.05990254  1
  Ge  Ge3  1  0.27581359  0.42905286  0.60881922  1
  F  F4  1  0.02141893  0.23344769  0.74799804  1
  F  F5  1  0.14961078  0.29130210  0.46629829  1
  F  F6  1  0.30817969  0.12604941  0.96430029  1
  F  F7  1  0.39655132  0.58533501  0.75423930  1
  F  F8  1  0.51152407  0.62866625  0.47000687  1
  F  F9  1  0.54225412  0.15485252  0.60983311  1
  F  F10  1  0.81300502  0.21716824  0.15325500  1
  F  F11  1  0.83821457  0.62230917  0.95654752  1
  F  F12  1  0.99898724  0.70599512  0.62481570  1
