# generated using pymatgen
data_CaYbNdGaPt4
_symmetry_space_group_name_H-M   Amm2
_cell_length_a   4.14323746
_cell_length_b   6.94878571
_cell_length_c   11.78731406
_cell_angle_alpha   90.00000000
_cell_angle_beta   90.00000000
_cell_angle_gamma   90.00000000
_symmetry_Int_Tables_number   38
_chemical_formula_structural   CaYbNdGaPt4
_chemical_formula_sum   'Ca2 Yb2 Nd2 Ga2 Pt8'
_cell_volume   339.36230269
_cell_formula_units_Z   2
loop_
 _symmetry_equiv_pos_site_id
 _symmetry_equiv_pos_as_xyz
  1  'x, y, z'
  2  '-x, -y, z'
  3  '-x, y, z'
  4  'x, -y, z'
  5  'x, y+1/2, z+1/2'
  6  '-x, -y+1/2, z+1/2'
  7  '-x, y+1/2, z+1/2'
  8  'x, -y+1/2, z+1/2'
loop_
 _atom_site_type_symbol
 _atom_site_label
 _atom_site_symmetry_multiplicity
 _atom_site_fract_x
 _atom_site_fract_y
 _atom_site_fract_z
 _atom_site_occupancy
  Ca  Ca0  2  0.00000000  0.00000000  0.97934323  1
  Yb  Yb1  2  0.00000000  0.00000000  0.38678616  1
  Nd  Nd2  2  0.00000000  0.00000000  0.68404362  1
  Ga  Ga3  2  0.50000000  0.00000000  0.18210791  1
  Pt  Pt4  4  0.50000000  0.21250706  0.54867903  1
  Pt  Pt5  4  0.50000000  0.21856818  0.81641915  1
