# generated using pymatgen
data_Cd2O3
_symmetry_space_group_name_H-M   Cm
_cell_length_a   6.17430104
_cell_length_b   3.59857717
_cell_length_c   6.80016709
_cell_angle_alpha   90.00000000
_cell_angle_beta   92.77919565
_cell_angle_gamma   90.00000000
_symmetry_Int_Tables_number   8
_chemical_formula_structural   Cd2O3
_chemical_formula_sum   'Cd4 O6'
_cell_volume   150.91315265
_cell_formula_units_Z   2
loop_
 _symmetry_equiv_pos_site_id
 _symmetry_equiv_pos_as_xyz
  1  'x, y, z'
  2  'x, -y, z'
  3  'x+1/2, y+1/2, z'
  4  'x+1/2, -y+1/2, z'
loop_
 _atom_site_type_symbol
 _atom_site_label
 _atom_site_symmetry_multiplicity
 _atom_site_fract_x
 _atom_site_fract_y
 _atom_site_fract_z
 _atom_site_occupancy
  Cd  Cd0  2  0.14204613  0.00000000  0.35629634  1
  Cd  Cd1  2  0.26934881  0.50000000  0.81070365  1
  O  O2  2  0.09476451  0.00000000  0.66023595  1
  O  O3  2  0.44663358  0.00000000  0.99557299  1
  O  O4  2  0.46403938  0.00000000  0.21634512  1
