# generated using pymatgen
data_CdInAgSe4
_symmetry_space_group_name_H-M   P1
_cell_length_a   4.40156656
_cell_length_b   6.55736918
_cell_length_c   7.31690304
_cell_angle_alpha   64.78159903
_cell_angle_beta   89.39279553
_cell_angle_gamma   84.77762016
_symmetry_Int_Tables_number   1
_chemical_formula_structural   CdInAgSe4
_chemical_formula_sum   'Cd1 In1 Ag1 Se4'
_cell_volume   190.17129834
_cell_formula_units_Z   1
loop_
 _symmetry_equiv_pos_site_id
 _symmetry_equiv_pos_as_xyz
  1  'x, y, z'
loop_
 _atom_site_type_symbol
 _atom_site_label
 _atom_site_symmetry_multiplicity
 _atom_site_fract_x
 _atom_site_fract_y
 _atom_site_fract_z
 _atom_site_occupancy
  Cd  Cd0  1  0.57181057  0.37852751  0.67587740  1
  In  In1  1  0.89347147  0.99265376  0.30362488  1
  Ag  Ag2  1  0.32094799  0.91749917  0.86510724  1
  Se  Se3  1  0.06630492  0.26641609  0.91252120  1
  Se  Se4  1  0.38988678  0.83237777  0.54806194  1
  Se  Se5  1  0.59745659  0.37369576  0.31015414  1
  Se  Se6  1  0.82704296  0.72526528  0.10693365  1
