# generated using pymatgen
data_CeInO3
_symmetry_space_group_name_H-M   Pmc2_1
_cell_length_a   3.54251126
_cell_length_b   6.98139350
_cell_length_c   5.91754071
_cell_angle_alpha   90.00000000
_cell_angle_beta   90.00000000
_cell_angle_gamma   90.00000000
_symmetry_Int_Tables_number   26
_chemical_formula_structural   CeInO3
_chemical_formula_sum   'Ce2 In2 O6'
_cell_volume   146.35063480
_cell_formula_units_Z   2
loop_
 _symmetry_equiv_pos_site_id
 _symmetry_equiv_pos_as_xyz
  1  'x, y, z'
  2  '-x, -y, z+1/2'
  3  '-x, y, z'
  4  'x, -y, z+1/2'
loop_
 _atom_site_type_symbol
 _atom_site_label
 _atom_site_symmetry_multiplicity
 _atom_site_fract_x
 _atom_site_fract_y
 _atom_site_fract_z
 _atom_site_occupancy
  Ce  Ce0  2  0.50000000  0.12645000  0.66712353  1
  In  In1  2  0.00000000  0.34023823  0.12453601  1
  O  O2  2  0.00000000  0.03883844  0.96566831  1
  O  O3  2  0.00000000  0.37260588  0.75111951  1
  O  O4  2  0.50000000  0.24145741  0.28510129  1
