# generated using pymatgen
data_CeLuMgSc2Al4Os
_symmetry_space_group_name_H-M   P1
_cell_length_a   5.66158050
_cell_length_b   5.72778395
_cell_length_c   7.77089794
_cell_angle_alpha   83.31053274
_cell_angle_beta   69.43211652
_cell_angle_gamma   60.95792962
_symmetry_Int_Tables_number   1
_chemical_formula_structural   CeLuMgSc2Al4Os
_chemical_formula_sum   'Ce1 Lu1 Mg1 Sc2 Al4 Os1'
_cell_volume   205.81808676
_cell_formula_units_Z   1
loop_
 _symmetry_equiv_pos_site_id
 _symmetry_equiv_pos_as_xyz
  1  'x, y, z'
loop_
 _atom_site_type_symbol
 _atom_site_label
 _atom_site_symmetry_multiplicity
 _atom_site_fract_x
 _atom_site_fract_y
 _atom_site_fract_z
 _atom_site_occupancy
  Ce  Ce0  1  0.32644803  0.75415767  0.30275684  1
  Lu  Lu1  1  0.73373356  0.07996580  0.16000429  1
  Mg  Mg2  1  0.95519348  0.92472001  0.73663290  1
  Sc  Sc3  1  0.20445975  0.29629828  0.57769799  1
  Sc  Sc4  1  0.42142160  0.53551691  0.88322767  1
  Al  Al5  1  0.35040732  0.05886324  0.94236096  1
  Al  Al6  1  0.70899842  0.77326380  0.52427741  1
  Al  Al7  1  0.74691296  0.29167694  0.49180176  1
  Al  Al8  1  0.87619097  0.54183658  0.97020566  1
  Os  Os9  1  0.09787585  0.41823974  0.23352771  1
