# generated using pymatgen
data_CeMg4
_symmetry_space_group_name_H-M   C2/m
_cell_length_a   8.92265868
_cell_length_b   5.19467907
_cell_length_c   6.10552667
_cell_angle_alpha   90.00000000
_cell_angle_beta   117.29832747
_cell_angle_gamma   90.00000000
_symmetry_Int_Tables_number   12
_chemical_formula_structural   CeMg4
_chemical_formula_sum   'Ce2 Mg8'
_cell_volume   251.47650074
_cell_formula_units_Z   2
loop_
 _symmetry_equiv_pos_site_id
 _symmetry_equiv_pos_as_xyz
  1  'x, y, z'
  2  '-x, -y, -z'
  3  '-x, y, -z'
  4  'x, -y, z'
  5  'x+1/2, y+1/2, z'
  6  '-x+1/2, -y+1/2, -z'
  7  '-x+1/2, y+1/2, -z'
  8  'x+1/2, -y+1/2, z'
loop_
 _atom_site_type_symbol
 _atom_site_label
 _atom_site_symmetry_multiplicity
 _atom_site_fract_x
 _atom_site_fract_y
 _atom_site_fract_z
 _atom_site_occupancy
  Ce  Ce0  2  0.00000000  0.50000000  0.50000000  1
  Mg  Mg1  4  0.09706617  0.00000000  0.27775484  1
  Mg  Mg2  4  0.21507253  0.50000000  0.13139934  1
