# generated using pymatgen
data_CoAgAs2O7F
_symmetry_space_group_name_H-M   Pm
_cell_length_a   5.81942629
_cell_length_b   3.63983446
_cell_length_c   7.88902244
_cell_angle_alpha   90.00000000
_cell_angle_beta   104.94151491
_cell_angle_gamma   90.00000000
_symmetry_Int_Tables_number   6
_chemical_formula_structural   CoAgAs2O7F
_chemical_formula_sum   'Co1 Ag1 As2 O7 F1'
_cell_volume   161.45344476
_cell_formula_units_Z   1
loop_
 _symmetry_equiv_pos_site_id
 _symmetry_equiv_pos_as_xyz
  1  'x, y, z'
  2  'x, -y, z'
loop_
 _atom_site_type_symbol
 _atom_site_label
 _atom_site_symmetry_multiplicity
 _atom_site_fract_x
 _atom_site_fract_y
 _atom_site_fract_z
 _atom_site_occupancy
  Co  Co0  1  0.24541404  0.00000000  0.34787927  1
  Ag  Ag1  1  0.90683711  0.00000000  0.80152811  1
  As  As2  1  0.36040920  0.50000000  0.67663905  1
  As  As3  1  0.70421634  0.00000000  0.22442875  1
  O  O4  1  0.12858860  0.50000000  0.78253938  1
  O  O5  1  0.27593648  0.50000000  0.43592680  1
  O  O6  1  0.34693523  0.00000000  0.63216486  1
  O  O7  1  0.39608099  0.00000000  0.15993193  1
  O  O8  1  0.66581112  0.50000000  0.78518129  1
  O  O9  1  0.69513832  0.50000000  0.20869998  1
  O  O10  1  0.96309553  0.00000000  0.15339324  1
  F  F11  1  0.79477125  0.00000000  0.45817130  1
