# generated using pymatgen
data_CoSi2Rh
_symmetry_space_group_name_H-M   Imm2
_cell_length_a   3.14082202
_cell_length_b   5.53023713
_cell_length_c   6.11032355
_cell_angle_alpha   90.00000000
_cell_angle_beta   90.00000000
_cell_angle_gamma   90.00000000
_symmetry_Int_Tables_number   44
_chemical_formula_structural   CoSi2Rh
_chemical_formula_sum   'Co2 Si4 Rh2'
_cell_volume   106.13320718
_cell_formula_units_Z   2
loop_
 _symmetry_equiv_pos_site_id
 _symmetry_equiv_pos_as_xyz
  1  'x, y, z'
  2  '-x, -y, z'
  3  '-x, y, z'
  4  'x, -y, z'
  5  'x+1/2, y+1/2, z+1/2'
  6  '-x+1/2, -y+1/2, z+1/2'
  7  '-x+1/2, y+1/2, z+1/2'
  8  'x+1/2, -y+1/2, z+1/2'
loop_
 _atom_site_type_symbol
 _atom_site_label
 _atom_site_symmetry_multiplicity
 _atom_site_fract_x
 _atom_site_fract_y
 _atom_site_fract_z
 _atom_site_occupancy
  Co  Co0  2  0.00000000  0.00000000  0.31361939  1
  Si  Si1  4  0.00000000  0.28800948  0.03524684  1
  Rh  Rh2  2  0.00000000  0.50000000  0.39358797  1
