# generated using pymatgen
data_Cr2AgS4
_symmetry_space_group_name_H-M   P2
_cell_length_a   5.26819236
_cell_length_b   5.24451471
_cell_length_c   5.60664103
_cell_angle_alpha   90.00000000
_cell_angle_beta   91.21255455
_cell_angle_gamma   90.00000000
_symmetry_Int_Tables_number   3
_chemical_formula_structural   Cr2AgS4
_chemical_formula_sum   'Cr2 Ag1 S4'
_cell_volume   154.87182672
_cell_formula_units_Z   1
loop_
 _symmetry_equiv_pos_site_id
 _symmetry_equiv_pos_as_xyz
  1  'x, y, z'
  2  '-x, y, -z'
loop_
 _atom_site_type_symbol
 _atom_site_label
 _atom_site_symmetry_multiplicity
 _atom_site_fract_x
 _atom_site_fract_y
 _atom_site_fract_z
 _atom_site_occupancy
  Cr  Cr0  1  0.00000000  0.37557381  0.50000000  1
  Cr  Cr1  1  0.50000000  0.87575337  0.50000000  1
  Ag  Ag2  1  0.50000000  0.38546567  0.00000000  1
  S  S3  2  0.23113827  0.63858872  0.27874420  1
  S  S4  2  0.23957683  0.10976968  0.72053733  1
