# generated using pymatgen
data_Cr2SbO5
_symmetry_space_group_name_H-M   Imm2
_cell_length_a   3.10459143
_cell_length_b   16.91276686
_cell_length_c   3.87941322
_cell_angle_alpha   90.00000000
_cell_angle_beta   90.00000000
_cell_angle_gamma   90.00000000
_symmetry_Int_Tables_number   44
_chemical_formula_structural   Cr2SbO5
_chemical_formula_sum   'Cr4 Sb2 O10'
_cell_volume   203.69724629
_cell_formula_units_Z   2
loop_
 _symmetry_equiv_pos_site_id
 _symmetry_equiv_pos_as_xyz
  1  'x, y, z'
  2  '-x, -y, z'
  3  '-x, y, z'
  4  'x, -y, z'
  5  'x+1/2, y+1/2, z+1/2'
  6  '-x+1/2, -y+1/2, z+1/2'
  7  '-x+1/2, y+1/2, z+1/2'
  8  'x+1/2, -y+1/2, z+1/2'
loop_
 _atom_site_type_symbol
 _atom_site_label
 _atom_site_symmetry_multiplicity
 _atom_site_fract_x
 _atom_site_fract_y
 _atom_site_fract_z
 _atom_site_occupancy
  Cr  Cr0  4  0.00000000  0.30354521  0.96743394  1
  Sb  Sb1  2  0.00000000  0.00000000  0.46289599  1
  O  O2  4  0.00000000  0.12287011  0.48019487  1
  O  O3  4  0.00000000  0.27652122  0.46946941  1
  O  O4  2  0.00000000  0.50000000  0.29128339  1
