# generated using pymatgen
data_Cr5FeO6
_symmetry_space_group_name_H-M   P1
_cell_length_a   3.18952730
_cell_length_b   5.36978144
_cell_length_c   7.63144204
_cell_angle_alpha   88.78510300
_cell_angle_beta   89.55797033
_cell_angle_gamma   89.39974685
_symmetry_Int_Tables_number   1
_chemical_formula_structural   Cr5FeO6
_chemical_formula_sum   'Cr5 Fe1 O6'
_cell_volume   130.66397702
_cell_formula_units_Z   1
loop_
 _symmetry_equiv_pos_site_id
 _symmetry_equiv_pos_as_xyz
  1  'x, y, z'
loop_
 _atom_site_type_symbol
 _atom_site_label
 _atom_site_symmetry_multiplicity
 _atom_site_fract_x
 _atom_site_fract_y
 _atom_site_fract_z
 _atom_site_occupancy
  Cr  Cr0  1  0.16231726  0.68618266  0.55636789  1
  Cr  Cr1  1  0.19060578  0.01812106  0.89759432  1
  Cr  Cr2  1  0.63883436  0.18994499  0.55890552  1
  Cr  Cr3  1  0.70994185  0.52216167  0.89876829  1
  Cr  Cr4  1  0.75087631  0.88338718  0.22528267  1
  Fe  Fe5  1  0.24968562  0.38370853  0.23133595  1
  O  O6  1  0.10898472  0.32955163  0.71852985  1
  O  O7  1  0.14649197  0.04734868  0.40739090  1
  O  O8  1  0.32188929  0.71513198  0.06637633  1
  O  O9  1  0.58547673  0.82173658  0.73057916  1
  O  O10  1  0.73381604  0.55631042  0.37549806  1
  O  O11  1  0.79991542  0.21818536  0.07281181  1
