# generated using pymatgen
data_Cs2KCrBiF9
_symmetry_space_group_name_H-M   P1
_cell_length_a   6.85874224
_cell_length_b   6.90091116
_cell_length_c   7.48269873
_cell_angle_alpha   77.58644896
_cell_angle_beta   74.30084932
_cell_angle_gamma   87.72441952
_symmetry_Int_Tables_number   1
_chemical_formula_structural   Cs2KCrBiF9
_chemical_formula_sum   'Cs2 K1 Cr1 Bi1 F9'
_cell_volume   332.92067347
_cell_formula_units_Z   1
loop_
 _symmetry_equiv_pos_site_id
 _symmetry_equiv_pos_as_xyz
  1  'x, y, z'
loop_
 _atom_site_type_symbol
 _atom_site_label
 _atom_site_symmetry_multiplicity
 _atom_site_fract_x
 _atom_site_fract_y
 _atom_site_fract_z
 _atom_site_occupancy
  Cs  Cs0  1  0.01439077  0.05293148  0.33864666  1
  Cs  Cs1  1  0.49113703  0.54259389  0.34154726  1
  K  K2  1  0.63002319  0.14499520  0.98159619  1
  Cr  Cr3  1  0.40495255  0.00107307  0.62865426  1
  Bi  Bi4  1  0.09309368  0.61806385  0.98767937  1
  F  F5  1  0.07515857  0.63514227  0.27274773  1
  F  F6  1  0.21290708  0.19680467  0.61238910  1
  F  F7  1  0.23849341  0.77960042  0.62949402  1
  F  F8  1  0.31932824  0.38613452  0.05221824  1
  F  F9  1  0.34594098  0.90439764  0.90467168  1
  F  F10  1  0.52027273  0.01402401  0.36406207  1
  F  F11  1  0.62490809  0.16064192  0.62929786  1
  F  F12  1  0.83824625  0.82461816  0.03387374  1
  F  F13  1  0.85981765  0.38363001  0.07904546  1
