# generated using pymatgen
data_Cs2Li2PtF7
_symmetry_space_group_name_H-M   P-1
_cell_length_a   5.45133026
_cell_length_b   6.79774239
_cell_length_c   7.29466451
_cell_angle_alpha   62.58389004
_cell_angle_beta   72.40214209
_cell_angle_gamma   77.85265962
_symmetry_Int_Tables_number   2
_chemical_formula_structural   Cs2Li2PtF7
_chemical_formula_sum   'Cs2 Li2 Pt1 F7'
_cell_volume   227.91508143
_cell_formula_units_Z   1
loop_
 _symmetry_equiv_pos_site_id
 _symmetry_equiv_pos_as_xyz
  1  'x, y, z'
  2  '-x, -y, -z'
loop_
 _atom_site_type_symbol
 _atom_site_label
 _atom_site_symmetry_multiplicity
 _atom_site_fract_x
 _atom_site_fract_y
 _atom_site_fract_z
 _atom_site_occupancy
  Cs  Cs0  2  0.18876770  0.81134791  0.82331009  1
  Li  Li1  2  0.47102058  0.73782336  0.22888670  1
  Pt  Pt2  1  0.00000000  0.50000000  0.50000000  1
  F  F3  2  0.15966010  0.77392631  0.43400810  1
  F  F4  2  0.18769334  0.32145597  0.73178065  1
  F  F5  2  0.35810395  0.49225940  0.23714222  1
  F  F6  1  0.50000000  0.00000000  0.00000000  1
