# generated using pymatgen
data_Cs2LaIrF6
_symmetry_space_group_name_H-M   Pm
_cell_length_a   7.25431288
_cell_length_b   4.40315556
_cell_length_c   7.68949047
_cell_angle_alpha   90.00000000
_cell_angle_beta   117.80231120
_cell_angle_gamma   90.00000000
_symmetry_Int_Tables_number   6
_chemical_formula_structural   Cs2LaIrF6
_chemical_formula_sum   'Cs2 La1 Ir1 F6'
_cell_volume   217.26323025
_cell_formula_units_Z   1
loop_
 _symmetry_equiv_pos_site_id
 _symmetry_equiv_pos_as_xyz
  1  'x, y, z'
  2  'x, -y, z'
loop_
 _atom_site_type_symbol
 _atom_site_label
 _atom_site_symmetry_multiplicity
 _atom_site_fract_x
 _atom_site_fract_y
 _atom_site_fract_z
 _atom_site_occupancy
  Cs  Cs0  1  0.42824187  0.50000000  0.82059896  1
  Cs  Cs1  1  0.85020238  0.50000000  0.40414455  1
  La  La2  1  0.28886367  0.00000000  0.26650771  1
  Ir  Ir3  1  0.83652270  0.00000000  0.84519203  1
  F  F4  1  0.22132893  0.00000000  0.53199287  1
  F  F5  1  0.37708283  0.50000000  0.34678699  1
  F  F6  1  0.48094606  0.00000000  0.10457804  1
  F  F7  1  0.68841121  0.00000000  0.54205374  1
  F  F8  1  0.85574677  0.50000000  0.85617642  1
  F  F9  1  0.92684105  0.00000000  0.14228871  1
