# generated using pymatgen
data_Cs2NaMgOsBrN4
_symmetry_space_group_name_H-M   Pm
_cell_length_a   5.76449191
_cell_length_b   8.03892027
_cell_length_c   5.79010722
_cell_angle_alpha   90.00000000
_cell_angle_beta   112.73168385
_cell_angle_gamma   90.00000000
_symmetry_Int_Tables_number   6
_chemical_formula_structural   Cs2NaMgOsBrN4
_chemical_formula_sum   'Cs2 Na1 Mg1 Os1 Br1 N4'
_cell_volume   247.47374412
_cell_formula_units_Z   1
loop_
 _symmetry_equiv_pos_site_id
 _symmetry_equiv_pos_as_xyz
  1  'x, y, z'
  2  'x, -y, z'
loop_
 _atom_site_type_symbol
 _atom_site_label
 _atom_site_symmetry_multiplicity
 _atom_site_fract_x
 _atom_site_fract_y
 _atom_site_fract_z
 _atom_site_occupancy
  Cs  Cs0  2  0.78776316  0.27180798  0.57191573  1
  Na  Na1  1  0.26028959  0.00000000  0.10777826  1
  Mg  Mg2  1  0.42758743  0.50000000  0.91840294  1
  Os  Os3  1  0.14463640  0.50000000  0.20556298  1
  Br  Br4  1  0.31464596  0.00000000  0.62911877  1
  N  N5  2  0.26196438  0.32184262  0.09121027  1
  N  N6  1  0.26595781  0.50000000  0.54079630  1
  N  N7  1  0.80630419  0.50000000  0.07542369  1
