# generated using pymatgen
data_Cs2ReF6
_symmetry_space_group_name_H-M   C2/m
_cell_length_a   10.90607754
_cell_length_b   6.70255115
_cell_length_c   6.49384915
_cell_angle_alpha   90.00000000
_cell_angle_beta   123.48476434
_cell_angle_gamma   90.00000000
_symmetry_Int_Tables_number   12
_chemical_formula_structural   Cs2ReF6
_chemical_formula_sum   'Cs4 Re2 F12'
_cell_volume   395.90767317
_cell_formula_units_Z   2
loop_
 _symmetry_equiv_pos_site_id
 _symmetry_equiv_pos_as_xyz
  1  'x, y, z'
  2  '-x, -y, -z'
  3  '-x, y, -z'
  4  'x, -y, z'
  5  'x+1/2, y+1/2, z'
  6  '-x+1/2, -y+1/2, -z'
  7  '-x+1/2, y+1/2, -z'
  8  'x+1/2, -y+1/2, z'
loop_
 _atom_site_type_symbol
 _atom_site_label
 _atom_site_symmetry_multiplicity
 _atom_site_fract_x
 _atom_site_fract_y
 _atom_site_fract_z
 _atom_site_occupancy
  Cs  Cs0  4  0.24719405  0.00000000  0.25717388  1
  Re  Re1  2  0.00000000  0.50000000  0.00000000  1
  F  F2  8  0.00230331  0.29073123  0.21962393  1
  F  F3  4  0.21831503  0.50000000  0.20059200  1
