# generated using pymatgen
data_Cs2SiHgS3
_symmetry_space_group_name_H-M   P1
_cell_length_a   5.57220128
_cell_length_b   7.10260987
_cell_length_c   7.62469394
_cell_angle_alpha   112.06751557
_cell_angle_beta   101.05658065
_cell_angle_gamma   102.18046645
_symmetry_Int_Tables_number   1
_chemical_formula_structural   Cs2SiHgS3
_chemical_formula_sum   'Cs2 Si1 Hg1 S3'
_cell_volume   260.83808024
_cell_formula_units_Z   1
loop_
 _symmetry_equiv_pos_site_id
 _symmetry_equiv_pos_as_xyz
  1  'x, y, z'
loop_
 _atom_site_type_symbol
 _atom_site_label
 _atom_site_symmetry_multiplicity
 _atom_site_fract_x
 _atom_site_fract_y
 _atom_site_fract_z
 _atom_site_occupancy
  Cs  Cs0  1  0.37382882  0.01917345  0.05878690  1
  Cs  Cs1  1  0.64354614  0.38483282  0.71770098  1
  Si  Si2  1  0.84023412  0.84208929  0.44950588  1
  Hg  Hg3  1  0.20314349  0.69332426  0.40421836  1
  S  S4  1  0.52162251  0.59128920  0.20632796  1
  S  S5  1  0.75470892  0.89979208  0.71917404  1
  S  S6  1  0.97612690  0.11438599  0.40375585  1
