# generated using pymatgen
data_Cs2TiSO3
_symmetry_space_group_name_H-M   P1
_cell_length_a   4.67005781
_cell_length_b   6.40372096
_cell_length_c   6.57390598
_cell_angle_alpha   117.80930124
_cell_angle_beta   98.48073478
_cell_angle_gamma   99.70739041
_symmetry_Int_Tables_number   1
_chemical_formula_structural   Cs2TiSO3
_chemical_formula_sum   'Cs2 Ti1 S1 O3'
_cell_volume   165.53540342
_cell_formula_units_Z   1
loop_
 _symmetry_equiv_pos_site_id
 _symmetry_equiv_pos_as_xyz
  1  'x, y, z'
loop_
 _atom_site_type_symbol
 _atom_site_label
 _atom_site_symmetry_multiplicity
 _atom_site_fract_x
 _atom_site_fract_y
 _atom_site_fract_z
 _atom_site_occupancy
  Cs  Cs0  1  0.03542611  0.13035642  0.02300451  1
  Cs  Cs1  1  0.81638290  0.76034323  0.33928439  1
  Ti  Ti2  1  0.60758436  0.34805656  0.63427569  1
  S  S3  1  0.29039073  0.62443847  0.77603733  1
  O  O4  1  0.00991561  0.49653613  0.85398923  1
  O  O5  1  0.45239404  0.07823939  0.62947220  1
  O  O6  1  0.62824376  0.29501934  0.35173357  1
