# generated using pymatgen
data_Cs2TiAlSe3O
_symmetry_space_group_name_H-M   P1
_cell_length_a   5.96755521
_cell_length_b   7.09540459
_cell_length_c   7.23389974
_cell_angle_alpha   102.63415508
_cell_angle_beta   104.96083835
_cell_angle_gamma   111.00081919
_symmetry_Int_Tables_number   1
_chemical_formula_structural   Cs2TiAlSe3O
_chemical_formula_sum   'Cs2 Ti1 Al1 Se3 O1'
_cell_volume   259.28991698
_cell_formula_units_Z   1
loop_
 _symmetry_equiv_pos_site_id
 _symmetry_equiv_pos_as_xyz
  1  'x, y, z'
loop_
 _atom_site_type_symbol
 _atom_site_label
 _atom_site_symmetry_multiplicity
 _atom_site_fract_x
 _atom_site_fract_y
 _atom_site_fract_z
 _atom_site_occupancy
  Cs  Cs0  1  0.20002680  0.69999711  0.89877158  1
  Cs  Cs1  1  0.61022575  0.03140536  0.61130746  1
  Ti  Ti2  1  0.10080875  0.23500638  0.25355427  1
  Al  Al3  1  0.68253783  0.48613251  0.24922007  1
  Se  Se4  1  0.28329154  0.25041295  0.97070495  1
  Se  Se5  1  0.54314024  0.49092894  0.53138419  1
  Se  Se6  1  0.89415287  0.85763984  0.24686821  1
  O  O7  1  0.90404886  0.37549818  0.25235836  1
