# generated using pymatgen
data_Cs4TlCdBiSe3
_symmetry_space_group_name_H-M   Cm
_cell_length_a   11.98627296
_cell_length_b   5.19123851
_cell_length_c   15.31342674
_cell_angle_alpha   90.00000000
_cell_angle_beta   111.40343565
_cell_angle_gamma   90.00000000
_symmetry_Int_Tables_number   8
_chemical_formula_structural   Cs4TlCdBiSe3
_chemical_formula_sum   'Cs8 Tl2 Cd2 Bi2 Se6'
_cell_volume   887.14179990
_cell_formula_units_Z   2
loop_
 _symmetry_equiv_pos_site_id
 _symmetry_equiv_pos_as_xyz
  1  'x, y, z'
  2  'x, -y, z'
  3  'x+1/2, y+1/2, z'
  4  'x+1/2, -y+1/2, z'
loop_
 _atom_site_type_symbol
 _atom_site_label
 _atom_site_symmetry_multiplicity
 _atom_site_fract_x
 _atom_site_fract_y
 _atom_site_fract_z
 _atom_site_occupancy
  Cs  Cs0  2  0.08054907  0.50000000  0.06186249  1
  Cs  Cs1  2  0.18431267  0.50000000  0.59521687  1
  Cs  Cs2  2  0.43937614  0.00000000  0.78094353  1
  Cs  Cs3  2  0.45523095  0.50000000  0.24390921  1
  Tl  Tl4  2  0.19413007  0.00000000  0.90222845  1
  Cd  Cd5  2  0.42570300  0.50000000  0.48273544  1
  Bi  Bi6  2  0.30939915  0.00000000  0.40861984  1
  Se  Se7  2  0.03920948  0.00000000  0.66766853  1
  Se  Se8  2  0.24509143  0.00000000  0.21936930  1
  Se  Se9  2  0.33818983  0.50000000  0.93260312  1
