# generated using pymatgen
data_CsBaOs2SCl4
_symmetry_space_group_name_H-M   Cm
_cell_length_a   12.07473206
_cell_length_b   7.45422982
_cell_length_c   5.63737998
_cell_angle_alpha   90.00000000
_cell_angle_beta   100.19635189
_cell_angle_gamma   90.00000000
_symmetry_Int_Tables_number   8
_chemical_formula_structural   CsBaOs2SCl4
_chemical_formula_sum   'Cs2 Ba2 Os4 S2 Cl8'
_cell_volume   499.39476614
_cell_formula_units_Z   2
loop_
 _symmetry_equiv_pos_site_id
 _symmetry_equiv_pos_as_xyz
  1  'x, y, z'
  2  'x, -y, z'
  3  'x+1/2, y+1/2, z'
  4  'x+1/2, -y+1/2, z'
loop_
 _atom_site_type_symbol
 _atom_site_label
 _atom_site_symmetry_multiplicity
 _atom_site_fract_x
 _atom_site_fract_y
 _atom_site_fract_z
 _atom_site_occupancy
  Cs  Cs0  2  0.02467886  0.00000000  0.41519516  1
  Ba  Ba1  2  0.12905662  0.50000000  0.93820296  1
  Os  Os2  2  0.35066582  0.00000000  0.07316919  1
  Os  Os3  2  0.35136112  0.00000000  0.61189878  1
  S  S4  2  0.01808182  0.50000000  0.40340986  1
  Cl  Cl5  4  0.27184820  0.21427064  0.31475359  1
  Cl  Cl6  4  0.42203040  0.25600049  0.86700144  1
