# generated using pymatgen
data_CsCeAgBr4F
_symmetry_space_group_name_H-M   P1
_cell_length_a   5.98652665
_cell_length_b   7.52545547
_cell_length_c   8.29640355
_cell_angle_alpha   64.36729521
_cell_angle_beta   70.88363219
_cell_angle_gamma   67.55008494
_symmetry_Int_Tables_number   1
_chemical_formula_structural   CsCeAgBr4F
_chemical_formula_sum   'Cs1 Ce1 Ag1 Br4 F1'
_cell_volume   305.47784246
_cell_formula_units_Z   1
loop_
 _symmetry_equiv_pos_site_id
 _symmetry_equiv_pos_as_xyz
  1  'x, y, z'
loop_
 _atom_site_type_symbol
 _atom_site_label
 _atom_site_symmetry_multiplicity
 _atom_site_fract_x
 _atom_site_fract_y
 _atom_site_fract_z
 _atom_site_occupancy
  Cs  Cs0  1  0.26020529  0.80405729  0.27687601  1
  Ce  Ce1  1  0.83434275  0.11939233  0.75086137  1
  Ag  Ag2  1  0.83802232  0.49525915  0.87889442  1
  Br  Br3  1  0.32057074  0.14271562  0.76949016  1
  Br  Br4  1  0.65476358  0.18455743  0.11168659  1
  Br  Br5  1  0.74056466  0.56998588  0.56281572  1
  Br  Br6  1  0.96047488  0.69044881  0.00836681  1
  F  F7  1  0.99562469  0.03139883  0.51988266  1
