# generated using pymatgen
data_CsK2AgSe2I
_symmetry_space_group_name_H-M   Pm
_cell_length_a   4.26196417
_cell_length_b   5.75848383
_cell_length_c   11.29133424
_cell_angle_alpha   90.00000000
_cell_angle_beta   90.34916699
_cell_angle_gamma   90.00000000
_symmetry_Int_Tables_number   6
_chemical_formula_structural   CsK2AgSe2I
_chemical_formula_sum   'Cs1 K2 Ag1 Se2 I1'
_cell_volume   277.11188029
_cell_formula_units_Z   1
loop_
 _symmetry_equiv_pos_site_id
 _symmetry_equiv_pos_as_xyz
  1  'x, y, z'
  2  'x, -y, z'
loop_
 _atom_site_type_symbol
 _atom_site_label
 _atom_site_symmetry_multiplicity
 _atom_site_fract_x
 _atom_site_fract_y
 _atom_site_fract_z
 _atom_site_occupancy
  Cs  Cs0  1  0.35512153  0.50000000  0.02675451  1
  K  K1  1  0.33590679  0.50000000  0.45940122  1
  K  K2  1  0.34188617  0.00000000  0.73211822  1
  Ag  Ag3  1  0.84859045  0.00000000  0.23395866  1
  Se  Se4  1  0.84106324  0.00000000  0.44853504  1
  Se  Se5  1  0.85554313  0.00000000  0.01821497  1
  I  I6  1  0.84173775  0.50000000  0.72561413  1
