# generated using pymatgen
data_CsLiCaYCrSiO8
_symmetry_space_group_name_H-M   P1
_cell_length_a   5.75687788
_cell_length_b   6.33561634
_cell_length_c   6.90537308
_cell_angle_alpha   104.48878533
_cell_angle_beta   97.22722986
_cell_angle_gamma   108.85501084
_symmetry_Int_Tables_number   1
_chemical_formula_structural   CsLiCaYCrSiO8
_chemical_formula_sum   'Cs1 Li1 Ca1 Y1 Cr1 Si1 O8'
_cell_volume   224.82033027
_cell_formula_units_Z   1
loop_
 _symmetry_equiv_pos_site_id
 _symmetry_equiv_pos_as_xyz
  1  'x, y, z'
loop_
 _atom_site_type_symbol
 _atom_site_label
 _atom_site_symmetry_multiplicity
 _atom_site_fract_x
 _atom_site_fract_y
 _atom_site_fract_z
 _atom_site_occupancy
  Cs  Cs0  1  0.81742905  0.74838419  0.48444588  1
  Li  Li1  1  0.56815240  0.16295856  0.22054381  1
  Ca  Ca2  1  0.65669537  0.29643076  0.76235138  1
  Y  Y3  1  0.28090098  0.49353024  0.01820930  1
  Cr  Cr4  1  0.91311178  0.93324953  0.04110778  1
  Si  Si5  1  0.12188608  0.34161395  0.45005605  1
  O  O6  1  0.12898214  0.08585329  0.28639033  1
  O  O7  1  0.21170457  0.53968239  0.33470306  1
  O  O8  1  0.31695836  0.39553317  0.66716689  1
  O  O9  1  0.53730953  0.34111163  0.05354900  1
  O  O10  1  0.62050306  0.85909776  0.08927477  1
  O  O11  1  0.83019273  0.27511832  0.47552294  1
  O  O12  1  0.93915931  0.12848057  0.90060271  1
  O  O13  1  0.98379309  0.69896124  0.91869102  1
