# generated using pymatgen
data_CsLiS2
_symmetry_space_group_name_H-M   C2/m
_cell_length_a   10.30964077
_cell_length_b   4.41850005
_cell_length_c   7.01209329
_cell_angle_alpha   90.00000000
_cell_angle_beta   131.71475766
_cell_angle_gamma   90.00000000
_symmetry_Int_Tables_number   12
_chemical_formula_structural   CsLiS2
_chemical_formula_sum   'Cs2 Li2 S4'
_cell_volume   238.43861320
_cell_formula_units_Z   2
loop_
 _symmetry_equiv_pos_site_id
 _symmetry_equiv_pos_as_xyz
  1  'x, y, z'
  2  '-x, -y, -z'
  3  'x, -y, 2x-z'
  4  '-x, y, -2x+z'
  5  '-x, y, -z'
  6  'x, -y, z'
  7  '-x, -y, -2x+z'
  8  'x, y, 2x-z'
  9  'x+1/2, y+1/2, z'
  10  '-x+1/2, -y+1/2, -z'
  11  'x+1/2, -y+1/2, 2x-z'
  12  '-x+1/2, y+1/2, -2x+z'
  13  '-x+1/2, y+1/2, -z'
  14  'x+1/2, -y+1/2, z'
  15  '-x+1/2, -y+1/2, -2x+z'
  16  'x+1/2, y+1/2, 2x-z'
loop_
 _atom_site_type_symbol
 _atom_site_label
 _atom_site_symmetry_multiplicity
 _atom_site_fract_x
 _atom_site_fract_y
 _atom_site_fract_z
 _atom_site_occupancy
  Cs  Cs0  2  0.00000000  0.00000000  0.50000000  1
  Li  Li1  2  0.00000000  0.50000000  0.00000000  1
  S  S2  4  0.13884914  0.00000000  0.13753696  1
