# generated using pymatgen
data_CsPdCl4
_symmetry_space_group_name_H-M   C2/m
_cell_length_a   10.72012926
_cell_length_b   7.66375510
_cell_length_c   5.83303589
_cell_angle_alpha   90.00000000
_cell_angle_beta   113.94669309
_cell_angle_gamma   90.00000000
_symmetry_Int_Tables_number   12
_chemical_formula_structural   CsPdCl4
_chemical_formula_sum   'Cs2 Pd2 Cl8'
_cell_volume   437.97177616
_cell_formula_units_Z   2
loop_
 _symmetry_equiv_pos_site_id
 _symmetry_equiv_pos_as_xyz
  1  'x, y, z'
  2  '-x, -y, -z'
  3  '-x, y, -z'
  4  'x, -y, z'
  5  'x+1/2, y+1/2, z'
  6  '-x+1/2, -y+1/2, -z'
  7  '-x+1/2, y+1/2, -z'
  8  'x+1/2, -y+1/2, z'
loop_
 _atom_site_type_symbol
 _atom_site_label
 _atom_site_symmetry_multiplicity
 _atom_site_fract_x
 _atom_site_fract_y
 _atom_site_fract_z
 _atom_site_occupancy
  Cs  Cs0  2  0.00000000  0.50000000  0.00000000  1
  Pd  Pd1  2  0.00000000  0.00000000  0.50000000  1
  Cl  Cl2  8  0.15651569  0.21490825  0.67589983  1
