# generated using pymatgen
data_CsRb2AlF6
_symmetry_space_group_name_H-M   P1
_cell_length_a   6.34698197
_cell_length_b   6.36582889
_cell_length_c   6.41611867
_cell_angle_alpha   89.76768055
_cell_angle_beta   60.92593743
_cell_angle_gamma   60.25036027
_symmetry_Int_Tables_number   1
_chemical_formula_structural   CsRb2AlF6
_chemical_formula_sum   'Cs1 Rb2 Al1 F6'
_cell_volume   186.86122880
_cell_formula_units_Z   1
loop_
 _symmetry_equiv_pos_site_id
 _symmetry_equiv_pos_as_xyz
  1  'x, y, z'
loop_
 _atom_site_type_symbol
 _atom_site_label
 _atom_site_symmetry_multiplicity
 _atom_site_fract_x
 _atom_site_fract_y
 _atom_site_fract_z
 _atom_site_occupancy
  Cs  Cs0  1  0.51500727  0.37505474  0.08623419  1
  Rb  Rb1  1  0.02037670  0.62168399  0.83232487  1
  Rb  Rb2  1  0.53209188  0.86642588  0.56754234  1
  Al  Al3  1  0.02031362  0.12270307  0.33398681  1
  F  F4  1  0.06266381  0.89290033  0.51071473  1
  F  F5  1  0.07935947  0.28925595  0.51317565  1
  F  F6  1  0.41754712  0.92065166  0.08810582  1
  F  F7  1  0.62135891  0.32689513  0.57194217  1
  F  F8  1  0.96254946  0.94948475  0.15992322  1
  F  F9  1  0.97564668  0.35813129  0.16334435  1
