# generated using pymatgen
data_CsSb5S6Br
_symmetry_space_group_name_H-M   P1
_cell_length_a   6.78031107
_cell_length_b   7.27374038
_cell_length_c   9.50376666
_cell_angle_alpha   95.60010338
_cell_angle_beta   103.31670949
_cell_angle_gamma   99.78910339
_symmetry_Int_Tables_number   1
_chemical_formula_structural   CsSb5S6Br
_chemical_formula_sum   'Cs1 Sb5 S6 Br1'
_cell_volume   444.87188875
_cell_formula_units_Z   1
loop_
 _symmetry_equiv_pos_site_id
 _symmetry_equiv_pos_as_xyz
  1  'x, y, z'
loop_
 _atom_site_type_symbol
 _atom_site_label
 _atom_site_symmetry_multiplicity
 _atom_site_fract_x
 _atom_site_fract_y
 _atom_site_fract_z
 _atom_site_occupancy
  Cs  Cs0  1  0.60481058  0.20475341  0.25866091  1
  Sb  Sb1  1  0.14964960  0.67599025  0.57959682  1
  Sb  Sb2  1  0.29811566  0.21006277  0.75723242  1
  Sb  Sb3  1  0.54594914  0.67744875  0.00526384  1
  Sb  Sb4  1  0.71891906  0.96401397  0.66770495  1
  Sb  Sb5  1  0.89555413  0.48261306  0.88279350  1
  S  S6  1  0.09888611  0.84795474  0.79864355  1
  S  S7  1  0.24859771  0.44036961  0.03511391  1
  S  S8  1  0.35104060  0.03391110  0.53175553  1
  S  S9  1  0.48866330  0.59342612  0.72415608  1
  S  S10  1  0.72283403  0.14708199  0.90981591  1
  S  S11  1  0.95246146  0.29389436  0.61989972  1
  Br  Br12  1  0.71809101  0.73653865  0.35771898  1
