# generated using pymatgen
data_CsSrTeCO6
_symmetry_space_group_name_H-M   P1
_cell_length_a   3.94107807
_cell_length_b   4.77748406
_cell_length_c   9.36382348
_cell_angle_alpha   83.52849388
_cell_angle_beta   87.81277270
_cell_angle_gamma   86.91098146
_symmetry_Int_Tables_number   1
_chemical_formula_structural   CsSrTeCO6
_chemical_formula_sum   'Cs1 Sr1 Te1 C1 O6'
_cell_volume   174.83668663
_cell_formula_units_Z   1
loop_
 _symmetry_equiv_pos_site_id
 _symmetry_equiv_pos_as_xyz
  1  'x, y, z'
loop_
 _atom_site_type_symbol
 _atom_site_label
 _atom_site_symmetry_multiplicity
 _atom_site_fract_x
 _atom_site_fract_y
 _atom_site_fract_z
 _atom_site_occupancy
  Cs  Cs0  1  0.38686194  0.56602223  0.38269905  1
  Sr  Sr1  1  0.35908464  0.48286856  0.94898921  1
  Te  Te2  1  0.89358242  0.03742408  0.70032688  1
  C  C3  1  0.75203886  0.96692907  0.07558157  1
  O  O4  1  0.39009479  0.13376721  0.73786537  1
  O  O5  1  0.52217718  0.08275395  0.15284515  1
  O  O6  1  0.83814080  0.69939798  0.09450007  1
  O  O7  1  0.89481159  0.65084697  0.76267685  1
  O  O8  1  0.89491746  0.12647324  0.96627711  1
  O  O9  1  0.91289748  0.05740008  0.50178030  1
