# generated using pymatgen
data_Cu2HSe2
_symmetry_space_group_name_H-M   C2/m
_cell_length_a   6.80749890
_cell_length_b   3.41643916
_cell_length_c   7.20304386
_cell_angle_alpha   90.00000000
_cell_angle_beta   95.78013545
_cell_angle_gamma   90.00000000
_symmetry_Int_Tables_number   12
_chemical_formula_structural   Cu2HSe2
_chemical_formula_sum   'Cu4 H2 Se4'
_cell_volume   166.67236900
_cell_formula_units_Z   2
loop_
 _symmetry_equiv_pos_site_id
 _symmetry_equiv_pos_as_xyz
  1  'x, y, z'
  2  '-x, -y, -z'
  3  '-x, y, -z'
  4  'x, -y, z'
  5  'x+1/2, y+1/2, z'
  6  '-x+1/2, -y+1/2, -z'
  7  '-x+1/2, y+1/2, -z'
  8  'x+1/2, -y+1/2, z'
loop_
 _atom_site_type_symbol
 _atom_site_label
 _atom_site_symmetry_multiplicity
 _atom_site_fract_x
 _atom_site_fract_y
 _atom_site_fract_z
 _atom_site_occupancy
  Cu  Cu0  2  0.00000000  0.00000000  0.00000000  1
  Cu  Cu1  2  0.00000000  0.50000000  0.50000000  1
  H  H2  2  0.00000000  0.00000000  0.50000000  1
  Se  Se3  4  0.13188161  0.50000000  0.81015577  1
