# generated using pymatgen
data_CuAgSb4Pt
_symmetry_space_group_name_H-M   P1
_cell_length_a   5.45659468
_cell_length_b   5.47566853
_cell_length_c   6.09988401
_cell_angle_alpha   68.19185552
_cell_angle_beta   71.18580100
_cell_angle_gamma   74.55808060
_symmetry_Int_Tables_number   1
_chemical_formula_structural   CuAgSb4Pt
_chemical_formula_sum   'Cu1 Ag1 Sb4 Pt1'
_cell_volume   157.93114469
_cell_formula_units_Z   1
loop_
 _symmetry_equiv_pos_site_id
 _symmetry_equiv_pos_as_xyz
  1  'x, y, z'
loop_
 _atom_site_type_symbol
 _atom_site_label
 _atom_site_symmetry_multiplicity
 _atom_site_fract_x
 _atom_site_fract_y
 _atom_site_fract_z
 _atom_site_occupancy
  Cu  Cu0  1  0.85842746  0.56211098  0.23610960  1
  Ag  Ag1  1  0.23041248  0.20198415  0.04531215  1
  Sb  Sb2  1  0.16268796  0.76351058  0.76781463  1
  Sb  Sb3  1  0.32812921  0.60740801  0.29693598  1
  Sb  Sb4  1  0.72891196  0.04692447  0.33810980  1
  Sb  Sb5  1  0.75031223  0.35047229  0.72972238  1
  Pt  Pt6  1  0.62038437  0.84002052  0.83341754  1
