# generated using pymatgen
data_Dy4Al2Se
_symmetry_space_group_name_H-M   P1
_cell_length_a   5.32064021
_cell_length_b   5.72067218
_cell_length_c   6.43799467
_cell_angle_alpha   71.97606169
_cell_angle_beta   80.17629460
_cell_angle_gamma   79.96488195
_symmetry_Int_Tables_number   1
_chemical_formula_structural   Dy4Al2Se
_chemical_formula_sum   'Dy4 Al2 Se1'
_cell_volume   182.05976535
_cell_formula_units_Z   1
loop_
 _symmetry_equiv_pos_site_id
 _symmetry_equiv_pos_as_xyz
  1  'x, y, z'
loop_
 _atom_site_type_symbol
 _atom_site_label
 _atom_site_symmetry_multiplicity
 _atom_site_fract_x
 _atom_site_fract_y
 _atom_site_fract_z
 _atom_site_occupancy
  Dy  Dy0  1  0.09693053  0.25347885  0.38031587  1
  Dy  Dy1  1  0.15539223  0.54439332  0.83351505  1
  Dy  Dy2  1  0.53423716  0.75348843  0.26375712  1
  Dy  Dy3  1  0.58240344  0.00948188  0.72253128  1
  Al  Al4  1  0.04088434  0.01785425  0.95853001  1
  Al  Al5  1  0.63858269  0.32036597  0.08329725  1
  Se  Se6  1  0.99111175  0.76089831  0.42242497  1
