# generated using pymatgen
data_Er2Mg2CuAgS6
_symmetry_space_group_name_H-M   Pm
_cell_length_a   6.51679684
_cell_length_b   3.89425572
_cell_length_c   9.42774437
_cell_angle_alpha   90.00000000
_cell_angle_beta   90.45648148
_cell_angle_gamma   90.00000000
_symmetry_Int_Tables_number   6
_chemical_formula_structural   Er2Mg2CuAgS6
_chemical_formula_sum   'Er2 Mg2 Cu1 Ag1 S6'
_cell_volume   239.25039477
_cell_formula_units_Z   1
loop_
 _symmetry_equiv_pos_site_id
 _symmetry_equiv_pos_as_xyz
  1  'x, y, z'
  2  'x, -y, z'
loop_
 _atom_site_type_symbol
 _atom_site_label
 _atom_site_symmetry_multiplicity
 _atom_site_fract_x
 _atom_site_fract_y
 _atom_site_fract_z
 _atom_site_occupancy
  Er  Er0  1  0.06148349  0.50000000  0.60805240  1
  Er  Er1  1  0.25285102  0.00000000  0.96069911  1
  Mg  Mg2  1  0.56506213  0.00000000  0.59181283  1
  Mg  Mg3  1  0.90701347  0.00000000  0.28955414  1
  Cu  Cu4  1  0.42686514  0.50000000  0.17722621  1
  Ag  Ag5  1  0.74185865  0.50000000  0.94534147  1
  S  S6  1  0.08221345  0.50000000  0.12514032  1
  S  S7  1  0.22528169  0.00000000  0.45349376  1
  S  S8  1  0.40084511  0.50000000  0.77643528  1
  S  S9  1  0.59193514  0.00000000  0.12835332  1
  S  S10  1  0.72513342  0.50000000  0.44708621  1
  S  S11  1  0.90461825  0.00000000  0.77723052  1
