# generated using pymatgen
data_Er2ZrTlS6
_symmetry_space_group_name_H-M   P1
_cell_length_a   6.76499572
_cell_length_b   6.79407031
_cell_length_c   7.07019942
_cell_angle_alpha   67.87021643
_cell_angle_beta   82.80533322
_cell_angle_gamma   61.25502113
_symmetry_Int_Tables_number   1
_chemical_formula_structural   Er2ZrTlS6
_chemical_formula_sum   'Er2 Zr1 Tl1 S6'
_cell_volume   263.29921822
_cell_formula_units_Z   1
loop_
 _symmetry_equiv_pos_site_id
 _symmetry_equiv_pos_as_xyz
  1  'x, y, z'
loop_
 _atom_site_type_symbol
 _atom_site_label
 _atom_site_symmetry_multiplicity
 _atom_site_fract_x
 _atom_site_fract_y
 _atom_site_fract_z
 _atom_site_occupancy
  Er  Er0  1  0.25206894  0.47090974  0.09594251  1
  Er  Er1  1  0.60518503  0.60927498  0.62196874  1
  Zr  Zr2  1  0.58133299  0.82763431  0.05649579  1
  Tl  Tl3  1  0.92544466  0.99162662  0.45794022  1
  S  S4  1  0.29536338  0.85473591  0.84090385  1
  S  S5  1  0.32590779  0.01767296  0.31642427  1
  S  S6  1  0.54986685  0.45086956  0.33396520  1
  S  S7  1  0.56700577  0.23007962  0.88087540  1
  S  S8  1  0.89050138  0.61669866  0.84997837  1
  S  S9  1  0.91181703  0.65358160  0.33058079  1
