# generated using pymatgen
data_Er2Zr4TiSn3
_symmetry_space_group_name_H-M   Cmmm
_cell_length_a   4.57210673
_cell_length_b   24.28120119
_cell_length_c   4.19364367
_cell_angle_alpha   90.00000000
_cell_angle_beta   90.00000000
_cell_angle_gamma   90.00000000
_symmetry_Int_Tables_number   65
_chemical_formula_structural   Er2Zr4TiSn3
_chemical_formula_sum   'Er4 Zr8 Ti2 Sn6'
_cell_volume   465.56256629
_cell_formula_units_Z   2
loop_
 _symmetry_equiv_pos_site_id
 _symmetry_equiv_pos_as_xyz
  1  'x, y, z'
  2  '-x, -y, -z'
  3  '-x, -y, z'
  4  'x, y, -z'
  5  'x, -y, -z'
  6  '-x, y, z'
  7  '-x, y, -z'
  8  'x, -y, z'
  9  'x+1/2, y+1/2, z'
  10  '-x+1/2, -y+1/2, -z'
  11  '-x+1/2, -y+1/2, z'
  12  'x+1/2, y+1/2, -z'
  13  'x+1/2, -y+1/2, -z'
  14  '-x+1/2, y+1/2, z'
  15  '-x+1/2, y+1/2, -z'
  16  'x+1/2, -y+1/2, z'
loop_
 _atom_site_type_symbol
 _atom_site_label
 _atom_site_symmetry_multiplicity
 _atom_site_fract_x
 _atom_site_fract_y
 _atom_site_fract_z
 _atom_site_occupancy
  Er  Er0  4  0.00000000  0.29974565  0.00000000  1
  Zr  Zr1  4  0.00000000  0.08862092  0.00000000  1
  Zr  Zr2  4  0.00000000  0.41119647  0.50000000  1
  Ti  Ti3  2  0.00000000  0.50000000  0.00000000  1
  Sn  Sn4  4  0.00000000  0.18293050  0.50000000  1
  Sn  Sn5  2  0.00000000  0.00000000  0.50000000  1
