# generated using pymatgen
data_Er4S5
_symmetry_space_group_name_H-M   Pm
_cell_length_a   7.09201444
_cell_length_b   3.66611374
_cell_length_c   7.84820556
_cell_angle_alpha   90.00000000
_cell_angle_beta   97.07764620
_cell_angle_gamma   90.00000000
_symmetry_Int_Tables_number   6
_chemical_formula_structural   Er4S5
_chemical_formula_sum   'Er4 S5'
_cell_volume   202.49950016
_cell_formula_units_Z   1
loop_
 _symmetry_equiv_pos_site_id
 _symmetry_equiv_pos_as_xyz
  1  'x, y, z'
  2  'x, -y, z'
loop_
 _atom_site_type_symbol
 _atom_site_label
 _atom_site_symmetry_multiplicity
 _atom_site_fract_x
 _atom_site_fract_y
 _atom_site_fract_z
 _atom_site_occupancy
  Er  Er0  1  0.09163452  0.50000000  0.28068583  1
  Er  Er1  1  0.32493852  0.00000000  0.72257532  1
  Er  Er2  1  0.53626233  0.50000000  0.17599564  1
  Er  Er3  1  0.87438063  0.00000000  0.86479824  1
  S  S4  1  0.03839214  0.50000000  0.64899271  1
  S  S5  1  0.22432970  0.00000000  0.04185775  1
  S  S6  1  0.39190824  0.00000000  0.40463504  1
  S  S7  1  0.59099160  0.50000000  0.83289316  1
  S  S8  1  0.81315295  0.00000000  0.21525754  1
