# generated using pymatgen
data_Er4Si3Os4
_symmetry_space_group_name_H-M   Pm
_cell_length_a   6.46024016
_cell_length_b   4.17777232
_cell_length_c   7.72151667
_cell_angle_alpha   90.00000000
_cell_angle_beta   91.91982016
_cell_angle_gamma   90.00000000
_symmetry_Int_Tables_number   6
_chemical_formula_structural   Er4Si3Os4
_chemical_formula_sum   'Er4 Si3 Os4'
_cell_volume   208.28222172
_cell_formula_units_Z   1
loop_
 _symmetry_equiv_pos_site_id
 _symmetry_equiv_pos_as_xyz
  1  'x, y, z'
  2  'x, -y, z'
loop_
 _atom_site_type_symbol
 _atom_site_label
 _atom_site_symmetry_multiplicity
 _atom_site_fract_x
 _atom_site_fract_y
 _atom_site_fract_z
 _atom_site_occupancy
  Er  Er0  1  0.01450017  0.50000000  0.30491623  1
  Er  Er1  1  0.04088226  0.50000000  0.75187073  1
  Er  Er2  1  0.55322071  0.50000000  0.61689882  1
  Er  Er3  1  0.56380181  0.00000000  0.24151415  1
  Si  Si4  1  0.24823314  0.00000000  0.55659513  1
  Si  Si5  1  0.32420259  0.50000000  0.03686285  1
  Si  Si6  1  0.74063281  0.00000000  0.83950079  1
  Os  Os7  1  0.02809698  0.00000000  0.04957849  1
  Os  Os8  1  0.36640911  0.00000000  0.87381371  1
  Os  Os9  1  0.69649122  0.50000000  0.99881001  1
  Os  Os10  1  0.86139989  0.00000000  0.53116326  1
