# generated using pymatgen
data_ErAgSbRhSe6
_symmetry_space_group_name_H-M   P1
_cell_length_a   5.40983079
_cell_length_b   6.71119246
_cell_length_c   7.25433406
_cell_angle_alpha   84.83991188
_cell_angle_beta   81.42559240
_cell_angle_gamma   70.29489727
_symmetry_Int_Tables_number   1
_chemical_formula_structural   ErAgSbRhSe6
_chemical_formula_sum   'Er1 Ag1 Sb1 Rh1 Se6'
_cell_volume   244.96146382
_cell_formula_units_Z   1
loop_
 _symmetry_equiv_pos_site_id
 _symmetry_equiv_pos_as_xyz
  1  'x, y, z'
loop_
 _atom_site_type_symbol
 _atom_site_label
 _atom_site_symmetry_multiplicity
 _atom_site_fract_x
 _atom_site_fract_y
 _atom_site_fract_z
 _atom_site_occupancy
  Er  Er0  1  0.24130918  0.56968668  0.02964407  1
  Ag  Ag1  1  0.71150533  0.12080404  0.52451610  1
  Sb  Sb2  1  0.47205447  0.80667139  0.44190780  1
  Rh  Rh3  1  0.01125940  0.21937393  0.93786931  1
  Se  Se4  1  0.05073076  0.97856748  0.22320169  1
  Se  Se5  1  0.12188583  0.89488672  0.75076096  1
  Se  Se6  1  0.29866763  0.45513870  0.42752312  1
  Se  Se7  1  0.50417255  0.17105580  0.88747317  1
  Se  Se8  1  0.73867754  0.55617257  0.10091690  1
  Se  Se9  1  0.91128944  0.43517833  0.63342791  1
