# generated using pymatgen
data_ErMnAl2Si2Ni
_symmetry_space_group_name_H-M   Amm2
_cell_length_a   3.65640938
_cell_length_b   3.97067481
_cell_length_c   14.53549178
_cell_angle_alpha   90.00000000
_cell_angle_beta   90.00000000
_cell_angle_gamma   90.00000000
_symmetry_Int_Tables_number   38
_chemical_formula_structural   ErMnAl2Si2Ni
_chemical_formula_sum   'Er2 Mn2 Al4 Si4 Ni2'
_cell_volume   211.03226751
_cell_formula_units_Z   2
loop_
 _symmetry_equiv_pos_site_id
 _symmetry_equiv_pos_as_xyz
  1  'x, y, z'
  2  '-x, -y, z'
  3  '-x, y, z'
  4  'x, -y, z'
  5  'x, y+1/2, z+1/2'
  6  '-x, -y+1/2, z+1/2'
  7  '-x, y+1/2, z+1/2'
  8  'x, -y+1/2, z+1/2'
loop_
 _atom_site_type_symbol
 _atom_site_label
 _atom_site_symmetry_multiplicity
 _atom_site_fract_x
 _atom_site_fract_y
 _atom_site_fract_z
 _atom_site_occupancy
  Er  Er0  2  0.00000000  0.00000000  0.63978064  1
  Mn  Mn1  2  0.00000000  0.00000000  0.32969349  1
  Al  Al2  2  0.50000000  0.00000000  0.45744085  1
  Al  Al3  2  0.50000000  0.00000000  0.83173706  1
  Si  Si4  2  0.50000000  0.00000000  0.06183303  1
  Si  Si5  2  0.50000000  0.00000000  0.22276275  1
  Ni  Ni6  2  0.00000000  0.00000000  0.96108554  1
