# generated using pymatgen
data_ErNbFe2SiB3
_symmetry_space_group_name_H-M   Amm2
_cell_length_a   3.46354209
_cell_length_b   3.56624849
_cell_length_c   15.01002918
_cell_angle_alpha   90.00000000
_cell_angle_beta   90.00000000
_cell_angle_gamma   90.00000000
_symmetry_Int_Tables_number   38
_chemical_formula_structural   ErNbFe2SiB3
_chemical_formula_sum   'Er2 Nb2 Fe4 Si2 B6'
_cell_volume   185.40165505
_cell_formula_units_Z   2
loop_
 _symmetry_equiv_pos_site_id
 _symmetry_equiv_pos_as_xyz
  1  'x, y, z'
  2  '-x, -y, z'
  3  '-x, y, z'
  4  'x, -y, z'
  5  'x, y+1/2, z+1/2'
  6  '-x, -y+1/2, z+1/2'
  7  '-x, y+1/2, z+1/2'
  8  'x, -y+1/2, z+1/2'
loop_
 _atom_site_type_symbol
 _atom_site_label
 _atom_site_symmetry_multiplicity
 _atom_site_fract_x
 _atom_site_fract_y
 _atom_site_fract_z
 _atom_site_occupancy
  Er  Er0  2  0.50000000  0.00000000  0.71028647  1
  Nb  Nb1  2  0.00000000  0.00000000  0.92107487  1
  Fe  Fe2  2  0.00000000  0.00000000  0.56129934  1
  Fe  Fe3  2  0.50000000  0.00000000  0.06088445  1
  Si  Si4  2  0.00000000  0.00000000  0.29214653  1
  B  B5  2  0.00000000  0.00000000  0.13292601  1
  B  B6  2  0.50000000  0.00000000  0.36515068  1
  B  B7  2  0.50000000  0.00000000  0.48603128  1
