# generated using pymatgen
data_ErZnGaPd
_symmetry_space_group_name_H-M   Cm
_cell_length_a   8.23729760
_cell_length_b   3.86184377
_cell_length_c   5.15079301
_cell_angle_alpha   90.00000000
_cell_angle_beta   111.54477798
_cell_angle_gamma   90.00000000
_symmetry_Int_Tables_number   8
_chemical_formula_structural   ErZnGaPd
_chemical_formula_sum   'Er2 Zn2 Ga2 Pd2'
_cell_volume   152.40443537
_cell_formula_units_Z   2
loop_
 _symmetry_equiv_pos_site_id
 _symmetry_equiv_pos_as_xyz
  1  'x, y, z'
  2  'x, -y, z'
  3  'x+1/2, y+1/2, z'
  4  'x+1/2, -y+1/2, z'
loop_
 _atom_site_type_symbol
 _atom_site_label
 _atom_site_symmetry_multiplicity
 _atom_site_fract_x
 _atom_site_fract_y
 _atom_site_fract_z
 _atom_site_occupancy
  Er  Er0  2  0.33865680  0.50000000  0.63442899  1
  Zn  Zn1  2  0.11267405  0.50000000  0.96488649  1
  Ga  Ga2  2  0.06684467  0.00000000  0.29798829  1
  Pd  Pd3  2  0.34348537  0.00000000  0.13947340  1
