# generated using pymatgen
data_EuHoNiP2
_symmetry_space_group_name_H-M   Pm
_cell_length_a   3.86693183
_cell_length_b   3.79410280
_cell_length_c   7.08023092
_cell_angle_alpha   90.00000000
_cell_angle_beta   90.54984350
_cell_angle_gamma   90.00000000
_symmetry_Int_Tables_number   6
_chemical_formula_structural   EuHoNiP2
_chemical_formula_sum   'Eu1 Ho1 Ni1 P2'
_cell_volume   103.87308580
_cell_formula_units_Z   1
loop_
 _symmetry_equiv_pos_site_id
 _symmetry_equiv_pos_as_xyz
  1  'x, y, z'
  2  'x, -y, z'
loop_
 _atom_site_type_symbol
 _atom_site_label
 _atom_site_symmetry_multiplicity
 _atom_site_fract_x
 _atom_site_fract_y
 _atom_site_fract_z
 _atom_site_occupancy
  Eu  Eu0  1  0.81560063  0.00000000  0.20648835  1
  Ho  Ho1  1  0.30550580  0.00000000  0.69559645  1
  Ni  Ni2  1  0.81003847  0.50000000  0.85859526  1
  P  P3  1  0.31297471  0.50000000  0.01481843  1
  P  P4  1  0.80174143  0.50000000  0.54356692  1
