# generated using pymatgen
data_EuTe2
_symmetry_space_group_name_H-M   P1
_cell_length_a   4.95955219
_cell_length_b   5.55156835
_cell_length_c   5.72550625
_cell_angle_alpha   96.50552157
_cell_angle_beta   113.26928559
_cell_angle_gamma   111.74950691
_symmetry_Int_Tables_number   1
_chemical_formula_structural   EuTe2
_chemical_formula_sum   'Eu1 Te2'
_cell_volume   128.12900143
_cell_formula_units_Z   1
loop_
 _symmetry_equiv_pos_site_id
 _symmetry_equiv_pos_as_xyz
  1  'x, y, z'
loop_
 _atom_site_type_symbol
 _atom_site_label
 _atom_site_symmetry_multiplicity
 _atom_site_fract_x
 _atom_site_fract_y
 _atom_site_fract_z
 _atom_site_occupancy
  Eu  Eu0  1  0.89648217  0.51769015  0.86482771  1
  Te  Te1  1  0.16782267  0.09522561  0.75580232  1
  Te  Te2  1  0.61692110  0.59180909  0.27592806  1
