# generated using pymatgen
data_F2
_symmetry_space_group_name_H-M   P-1
_cell_length_a   2.97588010
_cell_length_b   3.40612373
_cell_length_c   3.89820814
_cell_angle_alpha   110.95367509
_cell_angle_beta   97.90882220
_cell_angle_gamma   105.03159547
_symmetry_Int_Tables_number   2
_chemical_formula_structural   F2
_chemical_formula_sum   F2
_cell_volume   34.45561164
_cell_formula_units_Z   1
loop_
 _symmetry_equiv_pos_site_id
 _symmetry_equiv_pos_as_xyz
  1  'x, y, z'
  2  '-x, -y, -z'
loop_
 _atom_site_type_symbol
 _atom_site_label
 _atom_site_symmetry_multiplicity
 _atom_site_fract_x
 _atom_site_fract_y
 _atom_site_fract_z
 _atom_site_occupancy
  F  F0  2  0.38347319  0.90303644  0.30231553  1
