# generated using pymatgen
data_Fe3CoP4
_symmetry_space_group_name_H-M   Cm
_cell_length_a   11.46814951
_cell_length_b   3.18404183
_cell_length_c   5.79419860
_cell_angle_alpha   90.00000000
_cell_angle_beta   116.62989452
_cell_angle_gamma   90.00000000
_symmetry_Int_Tables_number   8
_chemical_formula_structural   Fe3CoP4
_chemical_formula_sum   'Fe6 Co2 P8'
_cell_volume   189.13172418
_cell_formula_units_Z   2
loop_
 _symmetry_equiv_pos_site_id
 _symmetry_equiv_pos_as_xyz
  1  'x, y, z'
  2  'x, -y, z'
  3  'x+1/2, y+1/2, z'
  4  'x+1/2, -y+1/2, z'
loop_
 _atom_site_type_symbol
 _atom_site_label
 _atom_site_symmetry_multiplicity
 _atom_site_fract_x
 _atom_site_fract_y
 _atom_site_fract_z
 _atom_site_occupancy
  Fe  Fe0  2  0.03251905  0.50000000  0.18020888  1
  Fe  Fe1  2  0.04337557  0.00000000  0.77020585  1
  Fe  Fe2  2  0.28971188  0.50000000  0.48411173  1
  Co  Co3  2  0.27280927  0.00000000  0.87549219  1
  P  P4  2  0.12874143  0.00000000  0.47594839  1
  P  P5  2  0.19563306  0.50000000  0.05059452  1
  P  P6  2  0.40539390  0.50000000  0.91734234  1
  P  P7  2  0.43400562  0.00000000  0.45829367  1
