# generated using pymatgen
data_Ga2AgPbClOF5
_symmetry_space_group_name_H-M   P1
_cell_length_a   5.31435805
_cell_length_b   6.27564044
_cell_length_c   6.40607467
_cell_angle_alpha   90.18121609
_cell_angle_beta   99.89662473
_cell_angle_gamma   99.34301452
_symmetry_Int_Tables_number   1
_chemical_formula_structural   Ga2AgPbClOF5
_chemical_formula_sum   'Ga2 Ag1 Pb1 Cl1 O1 F5'
_cell_volume   207.57163451
_cell_formula_units_Z   1
loop_
 _symmetry_equiv_pos_site_id
 _symmetry_equiv_pos_as_xyz
  1  'x, y, z'
loop_
 _atom_site_type_symbol
 _atom_site_label
 _atom_site_symmetry_multiplicity
 _atom_site_fract_x
 _atom_site_fract_y
 _atom_site_fract_z
 _atom_site_occupancy
  Ga  Ga0  1  0.75617982  0.99507069  0.85726673  1
  Ga  Ga1  1  0.97386757  0.44224118  0.11861550  1
  Ag  Ag2  1  0.14335491  0.48236779  0.75824173  1
  Pb  Pb3  1  0.34476526  0.05063262  0.28771750  1
  Cl  Cl4  1  0.81594210  0.76843108  0.61147370  1
  O  O5  1  0.03560028  0.16375147  0.01950331  1
  F  F6  1  0.16472029  0.39761004  0.39393026  1
  F  F7  1  0.48897062  0.87139511  0.99134680  1
  F  F8  1  0.58038411  0.18079392  0.68564701  1
  F  F9  1  0.63145401  0.34524583  0.16384583  1
  F  F10  1  0.97694221  0.74460180  0.15485062  1
