# generated using pymatgen
data_GaCuSbO
_symmetry_space_group_name_H-M   Cm
_cell_length_a   10.25787945
_cell_length_b   3.20365535
_cell_length_c   4.10271775
_cell_angle_alpha   90.00000000
_cell_angle_beta   101.82828985
_cell_angle_gamma   90.00000000
_symmetry_Int_Tables_number   8
_chemical_formula_structural   GaCuSbO
_chemical_formula_sum   'Ga2 Cu2 Sb2 O2'
_cell_volume   131.96356133
_cell_formula_units_Z   2
loop_
 _symmetry_equiv_pos_site_id
 _symmetry_equiv_pos_as_xyz
  1  'x, y, z'
  2  'x, -y, z'
  3  'x+1/2, y+1/2, z'
  4  'x+1/2, -y+1/2, z'
loop_
 _atom_site_type_symbol
 _atom_site_label
 _atom_site_symmetry_multiplicity
 _atom_site_fract_x
 _atom_site_fract_y
 _atom_site_fract_z
 _atom_site_occupancy
  Ga  Ga0  2  0.47820959  0.50000000  0.09912546  1
  Cu  Cu1  2  0.44058891  0.00000000  0.55042068  1
  Sb  Sb2  2  0.19256867  0.50000000  0.78270095  1
  O  O3  2  0.23957812  0.00000000  0.46895137  1
