# generated using pymatgen
data_GdHoSiRhS
_symmetry_space_group_name_H-M   P3m1
_cell_length_a   4.06426269
_cell_length_b   4.06426269
_cell_length_c   7.54096826
_cell_angle_alpha   90.00000000
_cell_angle_beta   90.00000000
_cell_angle_gamma   120.00000000
_symmetry_Int_Tables_number   156
_chemical_formula_structural   GdHoSiRhS
_chemical_formula_sum   'Gd1 Ho1 Si1 Rh1 S1'
_cell_volume   107.87511851
_cell_formula_units_Z   1
loop_
 _symmetry_equiv_pos_site_id
 _symmetry_equiv_pos_as_xyz
  1  'x, y, z'
  2  '-y, x-y, z'
  3  '-x+y, -x, z'
  4  '-y, -x, z'
  5  '-x+y, y, z'
  6  'x, x-y, z'
loop_
 _atom_site_type_symbol
 _atom_site_label
 _atom_site_symmetry_multiplicity
 _atom_site_fract_x
 _atom_site_fract_y
 _atom_site_fract_z
 _atom_site_occupancy
  Gd  Gd0  1  0.66666667  0.33333333  0.79287562  1
  Ho  Ho1  1  0.66666667  0.33333333  0.30112719  1
  Si  Si2  1  0.33333333  0.66666667  0.04911903  1
  Rh  Rh3  1  0.00000000  0.00000000  0.05436524  1
  S  S4  1  0.00000000  0.00000000  0.54294186  1
