# generated using pymatgen
data_HgPdPb2
_symmetry_space_group_name_H-M   Amm2
_cell_length_a   3.63284921
_cell_length_b   7.14502685
_cell_length_c   7.60315813
_cell_angle_alpha   90.00000000
_cell_angle_beta   90.00000000
_cell_angle_gamma   90.00000000
_symmetry_Int_Tables_number   38
_chemical_formula_structural   HgPdPb2
_chemical_formula_sum   'Hg2 Pd2 Pb4'
_cell_volume   197.35369437
_cell_formula_units_Z   2
loop_
 _symmetry_equiv_pos_site_id
 _symmetry_equiv_pos_as_xyz
  1  'x, y, z'
  2  '-x, -y, -z+358/443'
  3  'x, -y, -z+358/443'
  4  '-x, y, z'
  5  '-x, y, -z+358/443'
  6  'x, -y, z'
  7  '-x, -y, z'
  8  'x, y, -z+358/443'
  9  'x, y+1/2, z+1/2'
  10  '-x, -y+1/2, -z+163/529'
  11  'x, -y+1/2, -z+163/529'
  12  '-x, y+1/2, z+1/2'
  13  '-x, y+1/2, -z+163/529'
  14  'x, -y+1/2, z+1/2'
  15  '-x, -y+1/2, z+1/2'
  16  'x, y+1/2, -z+163/529'
loop_
 _atom_site_type_symbol
 _atom_site_label
 _atom_site_symmetry_multiplicity
 _atom_site_fract_x
 _atom_site_fract_y
 _atom_site_fract_z
 _atom_site_occupancy
  Hg  Hg0  2  0.00000000  0.00000000  0.90406391  1
  Pd  Pd1  2  0.00000000  0.00000000  0.40914842  1
  Pb  Pb2  4  0.50000000  0.24574416  0.65085394  1
