# generated using pymatgen
data_Ho2TlSn
_symmetry_space_group_name_H-M   P-1
_cell_length_a   3.90921662
_cell_length_b   5.07732878
_cell_length_c   5.57864516
_cell_angle_alpha   87.25264756
_cell_angle_beta   82.80043069
_cell_angle_gamma   89.87943522
_symmetry_Int_Tables_number   2
_chemical_formula_structural   Ho2TlSn
_chemical_formula_sum   'Ho2 Tl1 Sn1'
_cell_volume   109.72692963
_cell_formula_units_Z   1
loop_
 _symmetry_equiv_pos_site_id
 _symmetry_equiv_pos_as_xyz
  1  'x, y, z'
  2  '-x, -y, -z'
loop_
 _atom_site_type_symbol
 _atom_site_label
 _atom_site_symmetry_multiplicity
 _atom_site_fract_x
 _atom_site_fract_y
 _atom_site_fract_z
 _atom_site_occupancy
  Ho  Ho0  1  0.50000000  0.00000000  0.00000000  1
  Ho  Ho1  1  0.50000000  0.50000000  0.50000000  1
  Tl  Tl2  1  0.00000000  0.00000000  0.50000000  1
  Sn  Sn3  1  0.00000000  0.50000000  0.00000000  1
