# generated using pymatgen
data_HoScCuSe2
_symmetry_space_group_name_H-M   P3m1
_cell_length_a   4.81194402
_cell_length_b   4.81194402
_cell_length_c   5.62155395
_cell_angle_alpha   90.00000000
_cell_angle_beta   90.00000000
_cell_angle_gamma   120.00000000
_symmetry_Int_Tables_number   156
_chemical_formula_structural   HoScCuSe2
_chemical_formula_sum   'Ho1 Sc1 Cu1 Se2'
_cell_volume   112.72705140
_cell_formula_units_Z   1
loop_
 _symmetry_equiv_pos_site_id
 _symmetry_equiv_pos_as_xyz
  1  'x, y, z'
  2  '-y, x-y, z'
  3  '-x+y, -x, z'
  4  '-y, -x, z'
  5  '-x+y, y, z'
  6  'x, x-y, z'
loop_
 _atom_site_type_symbol
 _atom_site_label
 _atom_site_symmetry_multiplicity
 _atom_site_fract_x
 _atom_site_fract_y
 _atom_site_fract_z
 _atom_site_occupancy
  Ho  Ho0  1  0.33333333  0.66666667  0.17649767  1
  Sc  Sc1  1  0.66666667  0.33333333  0.62204640  1
  Cu  Cu2  1  0.00000000  0.00000000  0.46169869  1
  Se  Se3  1  0.33333333  0.66666667  0.67228091  1
  Se  Se4  1  0.66666667  0.33333333  0.12169881  1
