# generated using pymatgen
data_HoZr2TiZnAu3
_symmetry_space_group_name_H-M   Pm
_cell_length_a   5.05759945
_cell_length_b   4.71155582
_cell_length_c   6.67073254
_cell_angle_alpha   90.00000000
_cell_angle_beta   92.16560278
_cell_angle_gamma   90.00000000
_symmetry_Int_Tables_number   6
_chemical_formula_structural   HoZr2TiZnAu3
_chemical_formula_sum   'Ho1 Zr2 Ti1 Zn1 Au3'
_cell_volume   158.84443653
_cell_formula_units_Z   1
loop_
 _symmetry_equiv_pos_site_id
 _symmetry_equiv_pos_as_xyz
  1  'x, y, z'
  2  'x, -y, z'
loop_
 _atom_site_type_symbol
 _atom_site_label
 _atom_site_symmetry_multiplicity
 _atom_site_fract_x
 _atom_site_fract_y
 _atom_site_fract_z
 _atom_site_occupancy
  Ho  Ho0  1  0.75769182  0.50000000  0.44332071  1
  Zr  Zr1  1  0.30234579  0.00000000  0.47822956  1
  Zr  Zr2  1  0.72223182  0.50000000  0.95051136  1
  Ti  Ti3  1  0.33541251  0.00000000  0.96742361  1
  Zn  Zn4  1  0.23637411  0.50000000  0.18657816  1
  Au  Au5  1  0.21892071  0.50000000  0.73144409  1
  Au  Au6  1  0.83935818  0.00000000  0.72007582  1
  Au  Au7  1  0.88130181  0.00000000  0.17899958  1
