# generated using pymatgen
data_In2SiGe2
_symmetry_space_group_name_H-M   Cm
_cell_length_a   21.61202158
_cell_length_b   3.70166065
_cell_length_c   2.84745023
_cell_angle_alpha   90.00000000
_cell_angle_beta   96.52805045
_cell_angle_gamma   90.00000000
_symmetry_Int_Tables_number   8
_chemical_formula_structural   In2SiGe2
_chemical_formula_sum   'In4 Si2 Ge4'
_cell_volume   226.32010717
_cell_formula_units_Z   2
loop_
 _symmetry_equiv_pos_site_id
 _symmetry_equiv_pos_as_xyz
  1  'x, y, z'
  2  'x, -y, z'
  3  'x+1/2, y+1/2, z'
  4  'x+1/2, -y+1/2, z'
loop_
 _atom_site_type_symbol
 _atom_site_label
 _atom_site_symmetry_multiplicity
 _atom_site_fract_x
 _atom_site_fract_y
 _atom_site_fract_z
 _atom_site_occupancy
  In  In0  2  0.29082047  0.00000000  0.09360568  1
  In  In1  2  0.40855525  0.50000000  0.74557287  1
  Si  Si2  2  0.18839631  0.50000000  0.00605699  1
  Ge  Ge3  2  0.01701541  0.50000000  0.81718541  1
  Ge  Ge4  2  0.10787916  0.00000000  0.92656887  1
