# generated using pymatgen
data_In2Te3
_symmetry_space_group_name_H-M   P1
_cell_length_a   4.39213967
_cell_length_b   4.41221378
_cell_length_c   11.18888449
_cell_angle_alpha   100.73739407
_cell_angle_beta   90.64204401
_cell_angle_gamma   119.71422647
_symmetry_Int_Tables_number   1
_chemical_formula_structural   In2Te3
_chemical_formula_sum   'In2 Te3'
_cell_volume   183.65405094
_cell_formula_units_Z   1
loop_
 _symmetry_equiv_pos_site_id
 _symmetry_equiv_pos_as_xyz
  1  'x, y, z'
loop_
 _atom_site_type_symbol
 _atom_site_label
 _atom_site_symmetry_multiplicity
 _atom_site_fract_x
 _atom_site_fract_y
 _atom_site_fract_z
 _atom_site_occupancy
  In  In0  1  0.03595406  0.10664117  0.45593181  1
  In  In1  1  0.53029504  0.11023236  0.03958821  1
  Te  Te2  1  0.15474236  0.36779304  0.91615850  1
  Te  Te3  1  0.41521858  0.85617337  0.59224732  1
  Te  Te4  1  0.63765770  0.32137886  0.29386013  1
