# generated using pymatgen
data_InAgSn2
_symmetry_space_group_name_H-M   Pm
_cell_length_a   3.89646542
_cell_length_b   4.47138816
_cell_length_c   6.19485500
_cell_angle_alpha   90.00000000
_cell_angle_beta   108.21357218
_cell_angle_gamma   90.00000000
_symmetry_Int_Tables_number   6
_chemical_formula_structural   InAgSn2
_chemical_formula_sum   'In1 Ag1 Sn2'
_cell_volume   102.52300712
_cell_formula_units_Z   1
loop_
 _symmetry_equiv_pos_site_id
 _symmetry_equiv_pos_as_xyz
  1  'x, y, z'
  2  'x, -y, z'
loop_
 _atom_site_type_symbol
 _atom_site_label
 _atom_site_symmetry_multiplicity
 _atom_site_fract_x
 _atom_site_fract_y
 _atom_site_fract_z
 _atom_site_occupancy
  In  In0  1  0.45579108  0.50000000  0.35114255  1
  Ag  Ag1  1  0.60464370  0.00000000  0.68021285  1
  Sn  Sn2  1  0.16672971  0.50000000  0.80705509  1
  Sn  Sn3  1  0.86496090  0.00000000  0.16942260  1
