# generated using pymatgen
data_InBrO2
_symmetry_space_group_name_H-M   P1
_cell_length_a   3.59540013
_cell_length_b   3.74021622
_cell_length_c   5.53524841
_cell_angle_alpha   76.24036838
_cell_angle_beta   74.79137085
_cell_angle_gamma   66.01278561
_symmetry_Int_Tables_number   1
_chemical_formula_structural   InBrO2
_chemical_formula_sum   'In1 Br1 O2'
_cell_volume   64.89456024
_cell_formula_units_Z   1
loop_
 _symmetry_equiv_pos_site_id
 _symmetry_equiv_pos_as_xyz
  1  'x, y, z'
loop_
 _atom_site_type_symbol
 _atom_site_label
 _atom_site_symmetry_multiplicity
 _atom_site_fract_x
 _atom_site_fract_y
 _atom_site_fract_z
 _atom_site_occupancy
  In  In0  1  0.02187712  0.66089530  0.41491119  1
  Br  Br1  1  0.36386189  0.99906100  0.93377531  1
  O  O2  1  0.68803265  0.31681340  0.38477951  1
  O  O3  1  0.83611298  0.59098475  0.82010587  1
