# generated using pymatgen
data_InS
_symmetry_space_group_name_H-M   C2
_cell_length_a   6.02266972
_cell_length_b   5.22688407
_cell_length_c   7.29060199
_cell_angle_alpha   90.00000000
_cell_angle_beta   105.23594001
_cell_angle_gamma   90.00000000
_symmetry_Int_Tables_number   5
_chemical_formula_structural   InS
_chemical_formula_sum   'In4 S4'
_cell_volume   221.43993005
_cell_formula_units_Z   4
loop_
 _symmetry_equiv_pos_site_id
 _symmetry_equiv_pos_as_xyz
  1  'x, y, z'
  2  '-x, y, -z'
  3  'x+1/2, y+1/2, z'
  4  '-x+1/2, y+1/2, -z'
loop_
 _atom_site_type_symbol
 _atom_site_label
 _atom_site_symmetry_multiplicity
 _atom_site_fract_x
 _atom_site_fract_y
 _atom_site_fract_z
 _atom_site_occupancy
  In  In0  2  0.00000000  0.16206994  0.00000000  1
  In  In1  2  0.00000000  0.52615943  0.50000000  1
  S  S2  4  0.19070298  0.76123890  0.28193107  1
