# generated using pymatgen
data_K2CaCdCu2BiO7
_symmetry_space_group_name_H-M   P1
_cell_length_a   5.66681740
_cell_length_b   5.73453808
_cell_length_c   8.43727599
_cell_angle_alpha   99.65503365
_cell_angle_beta   92.65813598
_cell_angle_gamma   99.47155956
_symmetry_Int_Tables_number   1
_chemical_formula_structural   K2CaCdCu2BiO7
_chemical_formula_sum   'K2 Ca1 Cd1 Cu2 Bi1 O7'
_cell_volume   265.84142019
_cell_formula_units_Z   1
loop_
 _symmetry_equiv_pos_site_id
 _symmetry_equiv_pos_as_xyz
  1  'x, y, z'
loop_
 _atom_site_type_symbol
 _atom_site_label
 _atom_site_symmetry_multiplicity
 _atom_site_fract_x
 _atom_site_fract_y
 _atom_site_fract_z
 _atom_site_occupancy
  K  K0  1  0.10084550  0.46236779  0.61621860  1
  K  K1  1  0.19814315  0.78422238  0.23132107  1
  Ca  Ca2  1  0.63015336  0.57323848  0.89389278  1
  Cd  Cd3  1  0.62625914  0.95823648  0.58602066  1
  Cu  Cu4  1  0.52681901  0.39381699  0.30863387  1
  Cu  Cu5  1  0.91626827  0.27739541  0.23070148  1
  Bi  Bi6  1  0.18200709  0.05104241  0.89455080  1
  O  O7  1  0.22322422  0.23667766  0.18753376  1
  O  O8  1  0.31279737  0.74307977  0.92295802  1
  O  O9  1  0.42082617  0.63070851  0.44931408  1
  O  O10  1  0.43961105  0.20940319  0.74357553  1
  O  O11  1  0.72958088  0.19980068  0.40008772  1
  O  O12  1  0.74164806  0.47950253  0.13705741  1
  O  O13  1  0.87049977  0.82518572  0.75042545  1
