# generated using pymatgen
data_K2CoBiTeIO4
_symmetry_space_group_name_H-M   P1
_cell_length_a   4.30271324
_cell_length_b   4.81902095
_cell_length_c   13.65670361
_cell_angle_alpha   92.00070194
_cell_angle_beta   91.16706027
_cell_angle_gamma   116.02012600
_symmetry_Int_Tables_number   1
_chemical_formula_structural   K2CoBiTeIO4
_chemical_formula_sum   'K2 Co1 Bi1 Te1 I1 O4'
_cell_volume   254.11187329
_cell_formula_units_Z   1
loop_
 _symmetry_equiv_pos_site_id
 _symmetry_equiv_pos_as_xyz
  1  'x, y, z'
loop_
 _atom_site_type_symbol
 _atom_site_label
 _atom_site_symmetry_multiplicity
 _atom_site_fract_x
 _atom_site_fract_y
 _atom_site_fract_z
 _atom_site_occupancy
  K  K0  1  0.30750243  0.91612656  0.12982689  1
  K  K1  1  0.98111370  0.21312404  0.47276308  1
  Co  Co2  1  0.39620402  0.01096983  0.69793957  1
  Bi  Bi3  1  0.99654682  0.24920171  0.89801069  1
  Te  Te4  1  0.73448640  0.68155480  0.71873000  1
  I  I5  1  0.64593212  0.56673863  0.30942573  1
  O  O6  1  0.35736282  0.95349561  0.57518462  1
  O  O7  1  0.44220439  0.08906963  0.82520392  1
  O  O8  1  0.76281294  0.71411347  0.86020689  1
  O  O9  1  0.93362907  0.19341048  0.04206683  1
