# generated using pymatgen
data_K2In2Br
_symmetry_space_group_name_H-M   Pmm2
_cell_length_a   3.94027913
_cell_length_b   4.99567521
_cell_length_c   9.90399693
_cell_angle_alpha   90.00000000
_cell_angle_beta   90.00000000
_cell_angle_gamma   90.00000000
_symmetry_Int_Tables_number   25
_chemical_formula_structural   K2In2Br
_chemical_formula_sum   'K2 In2 Br1'
_cell_volume   194.95378915
_cell_formula_units_Z   1
loop_
 _symmetry_equiv_pos_site_id
 _symmetry_equiv_pos_as_xyz
  1  'x, y, z'
  2  '-x, -y, z'
  3  '-x, y, z'
  4  'x, -y, z'
loop_
 _atom_site_type_symbol
 _atom_site_label
 _atom_site_symmetry_multiplicity
 _atom_site_fract_x
 _atom_site_fract_y
 _atom_site_fract_z
 _atom_site_occupancy
  K  K0  1  0.00000000  0.00000000  0.46962365  1
  K  K1  1  0.00000000  0.50000000  0.06279675  1
  In  In2  1  0.50000000  0.00000000  0.84334914  1
  In  In3  1  0.50000000  0.50000000  0.70998838  1
  Br  Br4  1  0.50000000  0.50000000  0.32576945  1
