# generated using pymatgen
data_K2Li5Hg2O7
_symmetry_space_group_name_H-M   P1
_cell_length_a   5.32950635
_cell_length_b   5.70567851
_cell_length_c   8.10836478
_cell_angle_alpha   102.45190955
_cell_angle_beta   98.68139249
_cell_angle_gamma   102.44409544
_symmetry_Int_Tables_number   1
_chemical_formula_structural   K2Li5Hg2O7
_chemical_formula_sum   'K2 Li5 Hg2 O7'
_cell_volume   230.01339269
_cell_formula_units_Z   1
loop_
 _symmetry_equiv_pos_site_id
 _symmetry_equiv_pos_as_xyz
  1  'x, y, z'
loop_
 _atom_site_type_symbol
 _atom_site_label
 _atom_site_symmetry_multiplicity
 _atom_site_fract_x
 _atom_site_fract_y
 _atom_site_fract_z
 _atom_site_occupancy
  K  K0  1  0.11973126  0.68402884  0.30700209  1
  K  K1  1  0.96579907  0.38121958  0.78300720  1
  Li  Li2  1  0.29197453  0.93602593  0.74096538  1
  Li  Li3  1  0.31742904  0.99769243  0.06066680  1
  Li  Li4  1  0.78787735  0.75712643  0.63800123  1
  Li  Li5  1  0.80157870  0.98786494  0.01474260  1
  Li  Li6  1  0.82838712  0.11173003  0.34987888  1
  Hg  Hg7  1  0.36649627  0.30645841  0.48503614  1
  Hg  Hg8  1  0.55350800  0.50139388  0.04791057  1
  O  O9  1  0.01624284  0.87106881  0.86448968  1
  O  O10  1  0.07745440  0.05638319  0.55267070  1
  O  O11  1  0.14629573  0.14869314  0.23318968  1
  O  O12  1  0.46275589  0.60768648  0.70231729  1
  O  O13  1  0.56220141  0.16009254  0.92455165  1
  O  O14  1  0.56729701  0.84874515  0.17230589  1
  O  O15  1  0.73245316  0.44752923  0.44171292  1
