# generated using pymatgen
data_K2PbSI2Cl
_symmetry_space_group_name_H-M   P-1
_cell_length_a   5.20366454
_cell_length_b   5.60743549
_cell_length_c   10.76933817
_cell_angle_alpha   93.11840471
_cell_angle_beta   102.26258805
_cell_angle_gamma   90.10289699
_symmetry_Int_Tables_number   2
_chemical_formula_structural   K2PbSI2Cl
_chemical_formula_sum   'K2 Pb1 S1 I2 Cl1'
_cell_volume   306.58784653
_cell_formula_units_Z   1
loop_
 _symmetry_equiv_pos_site_id
 _symmetry_equiv_pos_as_xyz
  1  'x, y, z'
  2  '-x, -y, -z'
loop_
 _atom_site_type_symbol
 _atom_site_label
 _atom_site_symmetry_multiplicity
 _atom_site_fract_x
 _atom_site_fract_y
 _atom_site_fract_z
 _atom_site_occupancy
  K  K0  2  0.09490012  0.02305884  0.71103259  1
  Pb  Pb1  1  0.50000000  0.50000000  0.50000000  1
  S  S2  1  0.00000000  0.50000000  0.50000000  1
  I  I3  2  0.36868126  0.47495429  0.19844823  1
  Cl  Cl4  1  0.50000000  0.00000000  0.50000000  1
