# generated using pymatgen
data_K2TbBr4
_symmetry_space_group_name_H-M   C2/m
_cell_length_a   8.63717504
_cell_length_b   7.41333115
_cell_length_c   9.36777339
_cell_angle_alpha   90.00000000
_cell_angle_beta   115.77131899
_cell_angle_gamma   90.00000000
_symmetry_Int_Tables_number   12
_chemical_formula_structural   K2TbBr4
_chemical_formula_sum   'K4 Tb2 Br8'
_cell_volume   540.16050939
_cell_formula_units_Z   2
loop_
 _symmetry_equiv_pos_site_id
 _symmetry_equiv_pos_as_xyz
  1  'x, y, z'
  2  '-x, -y, -z'
  3  '-x, y, -z'
  4  'x, -y, z'
  5  'x+1/2, y+1/2, z'
  6  '-x+1/2, -y+1/2, -z'
  7  '-x+1/2, y+1/2, -z'
  8  'x+1/2, -y+1/2, z'
loop_
 _atom_site_type_symbol
 _atom_site_label
 _atom_site_symmetry_multiplicity
 _atom_site_fract_x
 _atom_site_fract_y
 _atom_site_fract_z
 _atom_site_occupancy
  K  K0  4  0.13033940  0.00000000  0.27353981  1
  Tb  Tb1  2  0.00000000  0.50000000  0.00000000  1
  Br  Br2  4  0.15773602  0.50000000  0.33783139  1
  Br  Br3  4  0.25000000  0.25000000  0.00000000  1
