# generated using pymatgen
data_K3AgBCO4
_symmetry_space_group_name_H-M   P1
_cell_length_a   4.64466033
_cell_length_b   5.49396591
_cell_length_c   8.55841802
_cell_angle_alpha   96.69319594
_cell_angle_beta   102.09419291
_cell_angle_gamma   90.67775475
_symmetry_Int_Tables_number   1
_chemical_formula_structural   K3AgBCO4
_chemical_formula_sum   'K3 Ag1 B1 C1 O4'
_cell_volume   211.93984878
_cell_formula_units_Z   1
loop_
 _symmetry_equiv_pos_site_id
 _symmetry_equiv_pos_as_xyz
  1  'x, y, z'
loop_
 _atom_site_type_symbol
 _atom_site_label
 _atom_site_symmetry_multiplicity
 _atom_site_fract_x
 _atom_site_fract_y
 _atom_site_fract_z
 _atom_site_occupancy
  K  K0  1  0.16405336  0.74827695  0.59906259  1
  K  K1  1  0.37940638  0.45736764  0.14607690  1
  K  K2  1  0.86043208  0.93221776  0.03167279  1
  Ag  Ag3  1  0.65382112  0.19874784  0.56404728  1
  B  B4  1  0.74607252  0.45324903  0.81702703  1
  C  C5  1  0.60949553  0.96323411  0.33445983  1
  O  O6  1  0.41405753  0.99773742  0.20738511  1
  O  O7  1  0.71675630  0.65066155  0.74180355  1
  O  O8  1  0.78529846  0.78620728  0.32865485  1
  O  O9  1  0.80675469  0.38179384  0.96086476  1
