# generated using pymatgen
data_K3HgI3O
_symmetry_space_group_name_H-M   P1
_cell_length_a   5.04125171
_cell_length_b   7.68072708
_cell_length_c   7.96678793
_cell_angle_alpha   95.48237136
_cell_angle_beta   97.55511199
_cell_angle_gamma   90.25108046
_symmetry_Int_Tables_number   1
_chemical_formula_structural   K3HgI3O
_chemical_formula_sum   'K3 Hg1 I3 O1'
_cell_volume   304.35618372
_cell_formula_units_Z   1
loop_
 _symmetry_equiv_pos_site_id
 _symmetry_equiv_pos_as_xyz
  1  'x, y, z'
loop_
 _atom_site_type_symbol
 _atom_site_label
 _atom_site_symmetry_multiplicity
 _atom_site_fract_x
 _atom_site_fract_y
 _atom_site_fract_z
 _atom_site_occupancy
  K  K0  1  0.26243669  0.99733795  0.72520252  1
  K  K1  1  0.28972966  0.45965034  0.83424780  1
  K  K2  1  0.85965249  0.34975871  0.16398957  1
  Hg  Hg3  1  0.36364093  0.00194573  0.17537222  1
  I  I4  1  0.40495011  0.72286212  0.35314085  1
  I  I5  1  0.73568911  0.26111161  0.56935993  1
  I  I6  1  0.80687259  0.76235091  0.91549799  1
  O  O7  1  0.33189278  0.21255005  0.04126359  1
