# generated using pymatgen
data_K3Li3NbBr2O4F
_symmetry_space_group_name_H-M   P1
_cell_length_a   6.18106597
_cell_length_b   6.74167608
_cell_length_c   7.15895493
_cell_angle_alpha   97.32287465
_cell_angle_beta   97.74715182
_cell_angle_gamma   98.44609193
_symmetry_Int_Tables_number   1
_chemical_formula_structural   K3Li3NbBr2O4F
_chemical_formula_sum   'K3 Li3 Nb1 Br2 O4 F1'
_cell_volume   289.07118747
_cell_formula_units_Z   1
loop_
 _symmetry_equiv_pos_site_id
 _symmetry_equiv_pos_as_xyz
  1  'x, y, z'
loop_
 _atom_site_type_symbol
 _atom_site_label
 _atom_site_symmetry_multiplicity
 _atom_site_fract_x
 _atom_site_fract_y
 _atom_site_fract_z
 _atom_site_occupancy
  K  K0  1  0.35759347  0.36229082  0.81912591  1
  K  K1  1  0.61119871  0.03839919  0.25275249  1
  K  K2  1  0.99234210  0.61789963  0.46543974  1
  Li  Li3  1  0.22291701  0.12491162  0.43830084  1
  Li  Li4  1  0.49092791  0.86694802  0.68972803  1
  Li  Li5  1  0.77736235  0.13709007  0.66803772  1
  Nb  Nb6  1  0.02704780  0.78824017  0.95982595  1
  Br  Br7  1  0.46189650  0.54870867  0.33290871  1
  Br  Br8  1  0.88171369  0.42107536  0.00116879  1
  O  O9  1  0.09487293  0.95440128  0.18995771  1
  O  O10  1  0.27116866  0.76966690  0.84223374  1
  O  O11  1  0.48063271  0.09320089  0.58269344  1
  O  O12  1  0.82014387  0.88188643  0.79855653  1
  F  F13  1  0.99852885  0.23943272  0.54110123  1
