# generated using pymatgen
data_K3Rb5Te8
_symmetry_space_group_name_H-M   Pmmm
_cell_length_a   6.68222941
_cell_length_b   9.21291840
_cell_length_c   9.71981424
_cell_angle_alpha   90.00000000
_cell_angle_beta   90.00000000
_cell_angle_gamma   90.00000000
_symmetry_Int_Tables_number   47
_chemical_formula_structural   K3Rb5Te8
_chemical_formula_sum   'K3 Rb5 Te8'
_cell_volume   598.37931328
_cell_formula_units_Z   1
loop_
 _symmetry_equiv_pos_site_id
 _symmetry_equiv_pos_as_xyz
  1  'x, y, z'
  2  '-x, -y, -z'
  3  '-x, -y, z'
  4  'x, y, -z'
  5  'x, -y, -z'
  6  '-x, y, z'
  7  '-x, y, -z'
  8  'x, -y, z'
loop_
 _atom_site_type_symbol
 _atom_site_label
 _atom_site_symmetry_multiplicity
 _atom_site_fract_x
 _atom_site_fract_y
 _atom_site_fract_z
 _atom_site_occupancy
  Rb  Rb0  1  0.00000000  0.00000000  0.00000000  1
  Rb  Rb1  1  0.00000000  0.00000000  0.50000000  1
  Rb  Rb2  1  0.00000000  0.50000000  0.00000000  1
  K  K3  1  0.00000000  0.50000000  0.50000000  1
  Rb  Rb4  1  0.50000000  0.00000000  0.00000000  1
  K  K5  1  0.50000000  0.00000000  0.50000000  1
  Rb  Rb6  1  0.50000000  0.50000000  0.00000000  1
  K  K7  1  0.50000000  0.50000000  0.50000000  1
  Te  Te8  8  0.25342047  0.25368119  0.25523839  1
