# generated using pymatgen
data_K3RbLi2SmBiF12
_symmetry_space_group_name_H-M   P1
_cell_length_a   6.19346602
_cell_length_b   7.54061578
_cell_length_c   7.63661041
_cell_angle_alpha   89.86018546
_cell_angle_beta   89.36423093
_cell_angle_gamma   87.29208708
_symmetry_Int_Tables_number   1
_chemical_formula_structural   K3RbLi2SmBiF12
_chemical_formula_sum   'K3 Rb1 Li2 Sm1 Bi1 F12'
_cell_volume   356.22832467
_cell_formula_units_Z   1
loop_
 _symmetry_equiv_pos_site_id
 _symmetry_equiv_pos_as_xyz
  1  'x, y, z'
loop_
 _atom_site_type_symbol
 _atom_site_label
 _atom_site_symmetry_multiplicity
 _atom_site_fract_x
 _atom_site_fract_y
 _atom_site_fract_z
 _atom_site_occupancy
  K  K0  1  0.32276033  0.20934878  0.09754313  1
  K  K1  1  0.39803117  0.70716898  0.85635154  1
  Rb  Rb2  1  0.85908016  0.93083693  0.09110910  1
  K  K3  1  0.85970506  0.89309783  0.59644168  1
  Li  Li4  1  0.29840491  0.73645122  0.33331237  1
  Li  Li5  1  0.90693209  0.43769771  0.84058023  1
  Sm  Sm6  1  0.80581629  0.40907384  0.35343087  1
  Bi  Bi7  1  0.36529179  0.16878635  0.62168032  1
  F  F8  1  0.08652524  0.20749920  0.41179619  1
  F  F9  1  0.12289562  0.05478908  0.78981783  1
  F  F10  1  0.22102707  0.40217698  0.78397729  1
  F  F11  1  0.30005691  0.87304942  0.14110932  1
  F  F12  1  0.37349780  0.87519282  0.53862706  1
  F  F13  1  0.47930483  0.52670362  0.29256932  1
  F  F14  1  0.57525526  0.05971250  0.82861139  1
  F  F15  1  0.62849442  0.14733775  0.35841988  1
  F  F16  1  0.71464951  0.38146844  0.63927960  1
  F  F17  1  0.83223150  0.67334253  0.85323850  1
  F  F18  1  0.88961982  0.33653885  0.07587738  1
  F  F19  1  0.99367921  0.65648258  0.36457258  1
