# generated using pymatgen
data_K3Sn
_symmetry_space_group_name_H-M   Cm
_cell_length_a   10.02795983
_cell_length_b   6.63466869
_cell_length_c   7.57587451
_cell_angle_alpha   90.00000000
_cell_angle_beta   130.28652153
_cell_angle_gamma   90.00000000
_symmetry_Int_Tables_number   8
_chemical_formula_structural   K3Sn
_chemical_formula_sum   'K6 Sn2'
_cell_volume   384.49166745
_cell_formula_units_Z   2
loop_
 _symmetry_equiv_pos_site_id
 _symmetry_equiv_pos_as_xyz
  1  'x, y, z'
  2  'x-z+520/919, -y, -z+121/919'
  3  'x, -y, z'
  4  'x-z+520/919, y, -z+121/919'
  5  'x+1/2, y+1/2, z'
  6  'x-z+21/319, -y+1/2, -z+121/919'
  7  'x+1/2, -y+1/2, z'
  8  'x-z+21/319, y+1/2, -z+121/919'
loop_
 _atom_site_type_symbol
 _atom_site_label
 _atom_site_symmetry_multiplicity
 _atom_site_fract_x
 _atom_site_fract_y
 _atom_site_fract_z
 _atom_site_occupancy
  K  K0  4  0.27744186  0.50000000  0.90182193  1
  K  K1  2  0.29107315  0.00000000  0.55798825  1
  Sn  Sn2  2  0.45060145  0.50000000  0.56583249  1
