# generated using pymatgen
data_K4CaF5
_symmetry_space_group_name_H-M   P-1
_cell_length_a   4.99527774
_cell_length_b   6.70738641
_cell_length_c   7.58680554
_cell_angle_alpha   77.26609759
_cell_angle_beta   72.29035768
_cell_angle_gamma   68.94780842
_symmetry_Int_Tables_number   2
_chemical_formula_structural   K4CaF5
_chemical_formula_sum   'K4 Ca1 F5'
_cell_volume   224.21554150
_cell_formula_units_Z   1
loop_
 _symmetry_equiv_pos_site_id
 _symmetry_equiv_pos_as_xyz
  1  'x, y, z'
  2  '-x, -y, -z'
loop_
 _atom_site_type_symbol
 _atom_site_label
 _atom_site_symmetry_multiplicity
 _atom_site_fract_x
 _atom_site_fract_y
 _atom_site_fract_z
 _atom_site_occupancy
  K  K0  2  0.22952678  0.66997480  0.87403304  1
  K  K1  2  0.37414109  0.92738330  0.31605510  1
  Ca  Ca2  1  0.00000000  0.50000000  0.50000000  1
  F  F3  2  0.12804984  0.14439869  0.60159772  1
  F  F4  2  0.19536828  0.40263645  0.20734005  1
  F  F5  1  0.50000000  0.50000000  0.50000000  1
