# generated using pymatgen
data_KAlCrO4F
_symmetry_space_group_name_H-M   P1
_cell_length_a   5.12172504
_cell_length_b   5.25643502
_cell_length_c   6.41103917
_cell_angle_alpha   75.55043163
_cell_angle_beta   69.82269562
_cell_angle_gamma   60.94140449
_symmetry_Int_Tables_number   1
_chemical_formula_structural   KAlCrO4F
_chemical_formula_sum   'K1 Al1 Cr1 O4 F1'
_cell_volume   140.90404043
_cell_formula_units_Z   1
loop_
 _symmetry_equiv_pos_site_id
 _symmetry_equiv_pos_as_xyz
  1  'x, y, z'
loop_
 _atom_site_type_symbol
 _atom_site_label
 _atom_site_symmetry_multiplicity
 _atom_site_fract_x
 _atom_site_fract_y
 _atom_site_fract_z
 _atom_site_occupancy
  K  K0  1  0.72078084  0.36502374  0.13135812  1
  Al  Al1  1  0.08716803  0.81608144  0.72716341  1
  Cr  Cr2  1  0.44508222  0.24203209  0.69424992  1
  O  O3  1  0.23862344  0.04335605  0.76027027  1
  O  O4  1  0.26759861  0.55123972  0.51881825  1
  O  O5  1  0.31633527  0.47578471  0.89647624  1
  O  O6  1  0.82891259  0.10943019  0.55131498  1
  F  F7  1  0.74109541  0.87436109  0.94604272  1
