# generated using pymatgen
data_KAlZnCo2O7
_symmetry_space_group_name_H-M   P1
_cell_length_a   5.09718356
_cell_length_b   5.34258063
_cell_length_c   5.83264713
_cell_angle_alpha   99.43371796
_cell_angle_beta   93.38955152
_cell_angle_gamma   101.15747567
_symmetry_Int_Tables_number   1
_chemical_formula_structural   KAlZnCo2O7
_chemical_formula_sum   'K1 Al1 Zn1 Co2 O7'
_cell_volume   153.04701915
_cell_formula_units_Z   1
loop_
 _symmetry_equiv_pos_site_id
 _symmetry_equiv_pos_as_xyz
  1  'x, y, z'
loop_
 _atom_site_type_symbol
 _atom_site_label
 _atom_site_symmetry_multiplicity
 _atom_site_fract_x
 _atom_site_fract_y
 _atom_site_fract_z
 _atom_site_occupancy
  K  K0  1  0.93211491  0.36324321  0.18925562  1
  Al  Al1  1  0.24447063  0.82858607  0.80817732  1
  Zn  Zn2  1  0.50963538  0.35924323  0.69827504  1
  Co  Co3  1  0.39263067  0.81936371  0.25097707  1
  Co  Co4  1  0.76033461  0.90398563  0.63581104  1
  O  O5  1  0.10872413  0.06658487  0.66136773  1
  O  O6  1  0.17491699  0.96914174  0.12453265  1
  O  O7  1  0.37984152  0.59354915  0.98927568  1
  O  O8  1  0.41540287  0.65905044  0.52878992  1
  O  O9  1  0.58387671  0.06864731  0.86522123  1
  O  O10  1  0.63158571  0.09245949  0.42508646  1
  O  O11  1  0.89100032  0.63675697  0.72350777  1
