# generated using pymatgen
data_KCrTe2S
_symmetry_space_group_name_H-M   Pmm2
_cell_length_a   3.98077079
_cell_length_b   7.87860591
_cell_length_c   4.42977065
_cell_angle_alpha   90.00000000
_cell_angle_beta   90.00000000
_cell_angle_gamma   90.00000000
_symmetry_Int_Tables_number   25
_chemical_formula_structural   KCrTe2S
_chemical_formula_sum   'K1 Cr1 Te2 S1'
_cell_volume   138.93056134
_cell_formula_units_Z   1
loop_
 _symmetry_equiv_pos_site_id
 _symmetry_equiv_pos_as_xyz
  1  'x, y, z'
  2  '-x, -y, z'
  3  '-x, y, z'
  4  'x, -y, z'
loop_
 _atom_site_type_symbol
 _atom_site_label
 _atom_site_symmetry_multiplicity
 _atom_site_fract_x
 _atom_site_fract_y
 _atom_site_fract_z
 _atom_site_occupancy
  K  K0  1  0.00000000  0.00000000  0.60515437  1
  Cr  Cr1  1  0.00000000  0.50000000  0.02626075  1
  Te  Te2  2  0.50000000  0.26732718  0.10812876  1
  S  S3  1  0.00000000  0.50000000  0.55789971  1
