# generated using pymatgen
data_KHoCoPBr2
_symmetry_space_group_name_H-M   P-1
_cell_length_a   4.23078575
_cell_length_b   5.49960440
_cell_length_c   7.55060644
_cell_angle_alpha   82.22256283
_cell_angle_beta   88.62070124
_cell_angle_gamma   89.40371563
_symmetry_Int_Tables_number   2
_chemical_formula_structural   KHoCoPBr2
_chemical_formula_sum   'K1 Ho1 Co1 P1 Br2'
_cell_volume   174.01379462
_cell_formula_units_Z   1
loop_
 _symmetry_equiv_pos_site_id
 _symmetry_equiv_pos_as_xyz
  1  'x, y, z'
  2  '-x, -y, -z'
  3  'x, -y, -z'
  4  '-x, y, z'
loop_
 _atom_site_type_symbol
 _atom_site_label
 _atom_site_symmetry_multiplicity
 _atom_site_fract_x
 _atom_site_fract_y
 _atom_site_fract_z
 _atom_site_occupancy
  K  K0  1  0.00000000  0.50000000  0.00000000  1
  Ho  Ho1  1  0.00000000  0.00000000  0.50000000  1
  Co  Co2  1  0.50000000  0.50000000  0.50000000  1
  P  P3  1  0.00000000  0.50000000  0.50000000  1
  Br  Br4  2  0.49338105  0.93950699  0.77369029  1
