# generated using pymatgen
data_KI
_symmetry_space_group_name_H-M   P1
_cell_length_a   4.99789317
_cell_length_b   5.03097149
_cell_length_c   5.06367000
_cell_angle_alpha   61.39418894
_cell_angle_beta   60.99839797
_cell_angle_gamma   60.87447670
_symmetry_Int_Tables_number   1
_chemical_formula_structural   KI
_chemical_formula_sum   'K1 I1'
_cell_volume   92.23350865
_cell_formula_units_Z   1
loop_
 _symmetry_equiv_pos_site_id
 _symmetry_equiv_pos_as_xyz
  1  'x, y, z'
loop_
 _atom_site_type_symbol
 _atom_site_label
 _atom_site_symmetry_multiplicity
 _atom_site_fract_x
 _atom_site_fract_y
 _atom_site_fract_z
 _atom_site_occupancy
  K  K0  1  0.95754268  0.52510520  0.44885268  1
  I  I1  1  0.45870170  0.02286149  0.94597475  1
