# generated using pymatgen
data_KLiYbF5
_symmetry_space_group_name_H-M   P1
_cell_length_a   4.31321039
_cell_length_b   4.31741201
_cell_length_c   6.55096560
_cell_angle_alpha   76.50918990
_cell_angle_beta   74.09633751
_cell_angle_gamma   79.57339536
_symmetry_Int_Tables_number   1
_chemical_formula_structural   KLiYbF5
_chemical_formula_sum   'K1 Li1 Yb1 F5'
_cell_volume   113.18774608
_cell_formula_units_Z   1
loop_
 _symmetry_equiv_pos_site_id
 _symmetry_equiv_pos_as_xyz
  1  'x, y, z'
loop_
 _atom_site_type_symbol
 _atom_site_label
 _atom_site_symmetry_multiplicity
 _atom_site_fract_x
 _atom_site_fract_y
 _atom_site_fract_z
 _atom_site_occupancy
  K  K0  1  0.69107872  0.16264058  0.40231586  1
  Li  Li1  1  0.03351427  0.52256543  0.69323462  1
  Yb  Yb2  1  0.29145070  0.69453432  0.02961364  1
  F  F3  1  0.08858154  0.60752358  0.38856399  1
  F  F4  1  0.13220276  0.04708605  0.73319876  1
  F  F5  1  0.34543812  0.14730088  0.11839760  1
  F  F6  1  0.48083185  0.59611560  0.68861556  1
  F  F7  1  0.82548003  0.56968950  0.99511699  1
