# generated using pymatgen
data_KMg3InS4Br
_symmetry_space_group_name_H-M   Pm
_cell_length_a   5.21617596
_cell_length_b   5.25688590
_cell_length_c   9.00230010
_cell_angle_alpha   90.00000000
_cell_angle_beta   103.82756480
_cell_angle_gamma   90.00000000
_symmetry_Int_Tables_number   6
_chemical_formula_structural   KMg3InS4Br
_chemical_formula_sum   'K1 Mg3 In1 S4 Br1'
_cell_volume   239.69676997
_cell_formula_units_Z   1
loop_
 _symmetry_equiv_pos_site_id
 _symmetry_equiv_pos_as_xyz
  1  'x, y, z'
  2  'x, -y, z'
loop_
 _atom_site_type_symbol
 _atom_site_label
 _atom_site_symmetry_multiplicity
 _atom_site_fract_x
 _atom_site_fract_y
 _atom_site_fract_z
 _atom_site_occupancy
  K  K0  1  0.04657154  0.50000000  0.35261162  1
  Mg  Mg1  1  0.06667077  0.50000000  0.74124666  1
  Mg  Mg2  1  0.19628565  0.00000000  0.00010826  1
  Mg  Mg3  1  0.55466286  0.00000000  0.67847820  1
  In  In4  1  0.66942032  0.50000000  0.97933016  1
  S  S5  1  0.06406586  0.00000000  0.70142990  1
  S  S6  1  0.19270403  0.50000000  0.02421619  1
  S  S7  1  0.54299468  0.50000000  0.67325315  1
  S  S8  1  0.69229922  0.00000000  0.99512339  1
  Br  Br9  1  0.42594816  0.00000000  0.35606538  1
