# generated using pymatgen
data_KNaLu2MgAgSnS7
_symmetry_space_group_name_H-M   P1
_cell_length_a   7.07767169
_cell_length_b   7.41956417
_cell_length_c   8.72593505
_cell_angle_alpha   101.37647949
_cell_angle_beta   99.23018607
_cell_angle_gamma   118.46943244
_symmetry_Int_Tables_number   1
_chemical_formula_structural   KNaLu2MgAgSnS7
_chemical_formula_sum   'K1 Na1 Lu2 Mg1 Ag1 Sn1 S7'
_cell_volume   377.29761582
_cell_formula_units_Z   1
loop_
 _symmetry_equiv_pos_site_id
 _symmetry_equiv_pos_as_xyz
  1  'x, y, z'
loop_
 _atom_site_type_symbol
 _atom_site_label
 _atom_site_symmetry_multiplicity
 _atom_site_fract_x
 _atom_site_fract_y
 _atom_site_fract_z
 _atom_site_occupancy
  K  K0  1  0.94200688  0.55140208  0.76057730  1
  Na  Na1  1  0.42454189  0.04889476  0.75109029  1
  Lu  Lu2  1  0.63671570  0.34503241  0.26528335  1
  Lu  Lu3  1  0.79016662  0.90918620  0.52978586  1
  Mg  Mg4  1  0.21932107  0.76381695  0.25709995  1
  Ag  Ag5  1  0.34462564  0.46057897  0.54328663  1
  Sn  Sn6  1  0.03621136  0.15888854  0.97171876  1
  S  S7  1  0.00581572  0.71364651  0.46165593  1
  S  S8  1  0.17077340  0.25770727  0.72313881  1
  S  S9  1  0.27095049  0.98225002  0.05458029  1
  S  S10  1  0.42173043  0.54983293  0.29517999  1
  S  S11  1  0.59158609  0.11455022  0.45888264  1
  S  S12  1  0.66974449  0.82014346  0.77916883  1
  S  S13  1  0.86128671  0.39612500  0.05296282  1
