# generated using pymatgen
data_KNdGaCuSe3
_symmetry_space_group_name_H-M   Cm
_cell_length_a   10.72745202
_cell_length_b   4.17303017
_cell_length_c   9.17730595
_cell_angle_alpha   90.00000000
_cell_angle_beta   119.77507019
_cell_angle_gamma   90.00000000
_symmetry_Int_Tables_number   8
_chemical_formula_structural   KNdGaCuSe3
_chemical_formula_sum   'K2 Nd2 Ga2 Cu2 Se6'
_cell_volume   356.59384142
_cell_formula_units_Z   2
loop_
 _symmetry_equiv_pos_site_id
 _symmetry_equiv_pos_as_xyz
  1  'x, y, z'
  2  'x, -y, z'
  3  'x+1/2, y+1/2, z'
  4  'x+1/2, -y+1/2, z'
loop_
 _atom_site_type_symbol
 _atom_site_label
 _atom_site_symmetry_multiplicity
 _atom_site_fract_x
 _atom_site_fract_y
 _atom_site_fract_z
 _atom_site_occupancy
  K  K0  2  0.11201740  0.00000000  0.12591094  1
  Nd  Nd1  2  0.04345412  0.50000000  0.48755504  1
  Ga  Ga2  2  0.22859245  0.00000000  0.82623304  1
  Cu  Cu3  2  0.31492701  0.00000000  0.62711289  1
  Se  Se4  2  0.07947752  0.50000000  0.82844917  1
  Se  Se5  2  0.31403338  0.50000000  0.46457051  1
  Se  Se6  2  0.40050922  0.00000000  0.13137920  1
