# generated using pymatgen
data_KRbGa2F8
_symmetry_space_group_name_H-M   P1
_cell_length_a   5.49907403
_cell_length_b   5.79132441
_cell_length_c   6.67236740
_cell_angle_alpha   79.24270045
_cell_angle_beta   89.73253269
_cell_angle_gamma   87.23763461
_symmetry_Int_Tables_number   1
_chemical_formula_structural   KRbGa2F8
_chemical_formula_sum   'K1 Rb1 Ga2 F8'
_cell_volume   208.51551433
_cell_formula_units_Z   1
loop_
 _symmetry_equiv_pos_site_id
 _symmetry_equiv_pos_as_xyz
  1  'x, y, z'
loop_
 _atom_site_type_symbol
 _atom_site_label
 _atom_site_symmetry_multiplicity
 _atom_site_fract_x
 _atom_site_fract_y
 _atom_site_fract_z
 _atom_site_occupancy
  Rb  Rb0  1  0.23126745  0.13646489  0.03165171  1
  K  K1  1  0.73778203  0.04879350  0.62687272  1
  Ga  Ga2  1  0.24852265  0.59684149  0.54321871  1
  Ga  Ga3  1  0.70234372  0.61506652  0.24324868  1
  F  F4  1  0.00006113  0.74758122  0.31663198  1
  F  F5  1  0.00377863  0.39714275  0.63221155  1
  F  F6  1  0.17960269  0.84327069  0.67801932  1
  F  F7  1  0.39832497  0.44468636  0.31681925  1
  F  F8  1  0.47937727  0.42204294  0.71753897  1
  F  F9  1  0.51879815  0.81257862  0.39663463  1
  F  F10  1  0.65086117  0.80732577  0.99865729  1
  F  F11  1  0.84406095  0.33400713  0.21725802  1
