# generated using pymatgen
data_KSmSe4Cl
_symmetry_space_group_name_H-M   Cmm2
_cell_length_a   7.08996553
_cell_length_b   8.70277320
_cell_length_c   6.97720137
_cell_angle_alpha   90.00000000
_cell_angle_beta   90.00000000
_cell_angle_gamma   90.00000000
_symmetry_Int_Tables_number   35
_chemical_formula_structural   KSmSe4Cl
_chemical_formula_sum   'K2 Sm2 Se8 Cl2'
_cell_volume   430.50980459
_cell_formula_units_Z   2
loop_
 _symmetry_equiv_pos_site_id
 _symmetry_equiv_pos_as_xyz
  1  'x, y, z'
  2  '-x, -y, z'
  3  '-x, y, z'
  4  'x, -y, z'
  5  'x+1/2, y+1/2, z'
  6  '-x+1/2, -y+1/2, z'
  7  '-x+1/2, y+1/2, z'
  8  'x+1/2, -y+1/2, z'
loop_
 _atom_site_type_symbol
 _atom_site_label
 _atom_site_symmetry_multiplicity
 _atom_site_fract_x
 _atom_site_fract_y
 _atom_site_fract_z
 _atom_site_occupancy
  K  K0  2  0.00000000  0.00000000  0.19320118  1
  Sm  Sm1  2  0.00000000  0.50000000  0.65420900  1
  Se  Se2  4  0.25000000  0.25000000  0.53604089  1
  Se  Se3  4  0.25000000  0.25000000  0.87178912  1
  Cl  Cl4  2  0.00000000  0.50000000  0.25113993  1
