# generated using pymatgen
data_KTl2Pd2F9
_symmetry_space_group_name_H-M   C2
_cell_length_a   10.39991329
_cell_length_b   5.99757126
_cell_length_c   8.17898003
_cell_angle_alpha   90.00000000
_cell_angle_beta   115.49306453
_cell_angle_gamma   90.00000000
_symmetry_Int_Tables_number   5
_chemical_formula_structural   KTl2Pd2F9
_chemical_formula_sum   'K2 Tl4 Pd4 F18'
_cell_volume   460.48724147
_cell_formula_units_Z   2
loop_
 _symmetry_equiv_pos_site_id
 _symmetry_equiv_pos_as_xyz
  1  'x, y, z'
  2  '-x, y, -z'
  3  'x+1/2, y+1/2, z'
  4  '-x+1/2, y+1/2, -z'
loop_
 _atom_site_type_symbol
 _atom_site_label
 _atom_site_symmetry_multiplicity
 _atom_site_fract_x
 _atom_site_fract_y
 _atom_site_fract_z
 _atom_site_occupancy
  K  K0  2  0.00000000  0.40240944  0.50000000  1
  Tl  Tl1  4  0.19871026  0.40213862  0.09604453  1
  Pd  Pd2  4  0.11261888  0.90368665  0.34080456  1
  F  F3  4  0.01671977  0.14862341  0.81007074  1
  F  F4  4  0.02113019  0.65811932  0.80121283  1
  F  F5  4  0.22734186  0.88982052  0.19599875  1
  F  F6  4  0.24615148  0.65585873  0.50960779  1
  F  F7  2  0.00000000  0.92158183  0.50000000  1
