# generated using pymatgen
data_KYZrCoO5
_symmetry_space_group_name_H-M   Pmm2
_cell_length_a   3.87325596
_cell_length_b   3.97547971
_cell_length_c   8.64950285
_cell_angle_alpha   90.00000000
_cell_angle_beta   90.00000000
_cell_angle_gamma   90.00000000
_symmetry_Int_Tables_number   25
_chemical_formula_structural   KYZrCoO5
_chemical_formula_sum   'K1 Y1 Zr1 Co1 O5'
_cell_volume   133.18548178
_cell_formula_units_Z   1
loop_
 _symmetry_equiv_pos_site_id
 _symmetry_equiv_pos_as_xyz
  1  'x, y, z'
  2  '-x, -y, z'
  3  '-x, y, z'
  4  'x, -y, z'
loop_
 _atom_site_type_symbol
 _atom_site_label
 _atom_site_symmetry_multiplicity
 _atom_site_fract_x
 _atom_site_fract_y
 _atom_site_fract_z
 _atom_site_occupancy
  K  K0  1  0.00000000  0.00000000  0.77030278  1
  Y  Y1  1  0.00000000  0.00000000  0.19062522  1
  Zr  Zr2  1  0.50000000  0.50000000  0.45262230  1
  Co  Co3  1  0.50000000  0.50000000  0.00695771  1
  O  O4  1  0.00000000  0.50000000  0.04146271  1
  O  O5  1  0.00000000  0.50000000  0.36259935  1
  O  O6  1  0.50000000  0.00000000  0.04038942  1
  O  O7  1  0.50000000  0.00000000  0.37065731  1
  O  O8  1  0.50000000  0.50000000  0.67112041  1
