# generated using pymatgen
data_La2CuBiSe6
_symmetry_space_group_name_H-M   C222
_cell_length_a   5.98019149
_cell_length_b   17.94084314
_cell_length_c   5.99111926
_cell_angle_alpha   90.00000000
_cell_angle_beta   90.00000000
_cell_angle_gamma   90.00000000
_symmetry_Int_Tables_number   21
_chemical_formula_structural   La2CuBiSe6
_chemical_formula_sum   'La4 Cu2 Bi2 Se12'
_cell_volume   642.78525340
_cell_formula_units_Z   2
loop_
 _symmetry_equiv_pos_site_id
 _symmetry_equiv_pos_as_xyz
  1  'x, y, z'
  2  '-x, -y, z'
  3  'x, -y, -z'
  4  '-x, y, -z'
  5  'x+1/2, y+1/2, z'
  6  '-x+1/2, -y+1/2, z'
  7  'x+1/2, -y+1/2, -z'
  8  '-x+1/2, y+1/2, -z'
loop_
 _atom_site_type_symbol
 _atom_site_label
 _atom_site_symmetry_multiplicity
 _atom_site_fract_x
 _atom_site_fract_y
 _atom_site_fract_z
 _atom_site_occupancy
  La  La0  4  0.25000000  0.25000000  0.74476521  1
  Cu  Cu1  2  0.00000000  0.00000000  0.50000000  1
  Bi  Bi2  2  0.00000000  0.50000000  0.00000000  1
  Se  Se3  8  0.22092282  0.08264251  0.72744851  1
  Se  Se4  4  0.25000000  0.25000000  0.24204662  1
