# generated using pymatgen
data_La2GaSnAu2
_symmetry_space_group_name_H-M   Cm
_cell_length_a   11.07862644
_cell_length_b   4.72339357
_cell_length_c   7.73970631
_cell_angle_alpha   90.00000000
_cell_angle_beta   132.46646471
_cell_angle_gamma   90.00000000
_symmetry_Int_Tables_number   8
_chemical_formula_structural   La2GaSnAu2
_chemical_formula_sum   'La4 Ga2 Sn2 Au4'
_cell_volume   298.76395942
_cell_formula_units_Z   2
loop_
 _symmetry_equiv_pos_site_id
 _symmetry_equiv_pos_as_xyz
  1  'x, y, z'
  2  'x, -y, z'
  3  'x+1/2, y+1/2, z'
  4  'x+1/2, -y+1/2, z'
loop_
 _atom_site_type_symbol
 _atom_site_label
 _atom_site_symmetry_multiplicity
 _atom_site_fract_x
 _atom_site_fract_y
 _atom_site_fract_z
 _atom_site_occupancy
  La  La0  2  0.06335108  0.50000000  0.97374667  1
  La  La1  2  0.13985980  0.50000000  0.57870043  1
  Ga  Ga2  2  0.43082253  0.50000000  0.17816165  1
  Sn  Sn3  2  0.25286348  0.00000000  0.37778954  1
  Au  Au4  2  0.28372332  0.00000000  0.99479025  1
  Au  Au5  2  0.43844481  0.50000000  0.56896846  1
