# generated using pymatgen
data_LaAg2Cl3O
_symmetry_space_group_name_H-M   P-1
_cell_length_a   6.42457427
_cell_length_b   7.44272384
_cell_length_c   7.81669053
_cell_angle_alpha   76.51156842
_cell_angle_beta   77.66439036
_cell_angle_gamma   78.07114542
_symmetry_Int_Tables_number   2
_chemical_formula_structural   LaAg2Cl3O
_chemical_formula_sum   'La2 Ag4 Cl6 O2'
_cell_volume   350.19051702
_cell_formula_units_Z   2
loop_
 _symmetry_equiv_pos_site_id
 _symmetry_equiv_pos_as_xyz
  1  'x, y, z'
  2  '-x, -y, -z'
loop_
 _atom_site_type_symbol
 _atom_site_label
 _atom_site_symmetry_multiplicity
 _atom_site_fract_x
 _atom_site_fract_y
 _atom_site_fract_z
 _atom_site_occupancy
  La  La0  2  0.08911674  0.17546564  0.21146819  1
  Ag  Ag1  2  0.27779021  0.36253435  0.54320489  1
  Ag  Ag2  2  0.33631800  0.60211019  0.13875879  1
  Cl  Cl3  2  0.20901724  0.42817617  0.83725425  1
  Cl  Cl4  2  0.23006518  0.83415755  0.45684910  1
  Cl  Cl5  2  0.27695624  0.91353024  0.95146031  1
  O  O6  2  0.27756968  0.32845978  0.28432337  1
