# generated using pymatgen
data_LaSnO2
_symmetry_space_group_name_H-M   Pm
_cell_length_a   3.61059705
_cell_length_b   3.49761040
_cell_length_c   5.95945411
_cell_angle_alpha   90.00000000
_cell_angle_beta   104.27544993
_cell_angle_gamma   90.00000000
_symmetry_Int_Tables_number   6
_chemical_formula_structural   LaSnO2
_chemical_formula_sum   'La1 Sn1 O2'
_cell_volume   72.93485978
_cell_formula_units_Z   1
loop_
 _symmetry_equiv_pos_site_id
 _symmetry_equiv_pos_as_xyz
  1  'x, y, z'
  2  'x, -y, z'
loop_
 _atom_site_type_symbol
 _atom_site_label
 _atom_site_symmetry_multiplicity
 _atom_site_fract_x
 _atom_site_fract_y
 _atom_site_fract_z
 _atom_site_occupancy
  La  La0  1  0.56952358  0.50000000  0.04743301  1
  Sn  Sn1  1  0.87799066  0.00000000  0.57938766  1
  O  O2  1  0.03903106  0.00000000  0.96679646  1
  O  O3  1  0.41218954  0.50000000  0.65213323  1
