# generated using pymatgen
data_LaZn2CuSe3S
_symmetry_space_group_name_H-M   Cm
_cell_length_a   8.31886493
_cell_length_b   8.10995967
_cell_length_c   7.17574360
_cell_angle_alpha   90.00000000
_cell_angle_beta   123.11033179
_cell_angle_gamma   90.00000000
_symmetry_Int_Tables_number   8
_chemical_formula_structural   LaZn2CuSe3S
_chemical_formula_sum   'La2 Zn4 Cu2 Se6 S2'
_cell_volume   405.50558160
_cell_formula_units_Z   2
loop_
 _symmetry_equiv_pos_site_id
 _symmetry_equiv_pos_as_xyz
  1  'x, y, z'
  2  'x, -y, z'
  3  'x+1/2, y+1/2, z'
  4  'x+1/2, -y+1/2, z'
loop_
 _atom_site_type_symbol
 _atom_site_label
 _atom_site_symmetry_multiplicity
 _atom_site_fract_x
 _atom_site_fract_y
 _atom_site_fract_z
 _atom_site_occupancy
  La  La0  2  0.23407944  0.00000000  0.12840369  1
  Zn  Zn1  4  0.26680207  0.25245726  0.64790269  1
  Cu  Cu2  2  0.27638039  0.50000000  0.13491046  1
  Se  Se3  4  0.40924959  0.71979318  0.41700149  1
  Se  Se4  2  0.41664833  0.00000000  0.88317918  1
  S  S5  2  0.33987124  0.50000000  0.86161723  1
