# generated using pymatgen
data_Li2Ca2GeB2CO10
_symmetry_space_group_name_H-M   P1
_cell_length_a   4.06908091
_cell_length_b   5.77217719
_cell_length_c   9.06471917
_cell_angle_alpha   87.48321744
_cell_angle_beta   83.12623710
_cell_angle_gamma   76.22134073
_symmetry_Int_Tables_number   1
_chemical_formula_structural   Li2Ca2GeB2CO10
_chemical_formula_sum   'Li2 Ca2 Ge1 B2 C1 O10'
_cell_volume   205.26788091
_cell_formula_units_Z   1
loop_
 _symmetry_equiv_pos_site_id
 _symmetry_equiv_pos_as_xyz
  1  'x, y, z'
loop_
 _atom_site_type_symbol
 _atom_site_label
 _atom_site_symmetry_multiplicity
 _atom_site_fract_x
 _atom_site_fract_y
 _atom_site_fract_z
 _atom_site_occupancy
  Li  Li0  1  0.19557455  0.46136210  0.20426708  1
  Li  Li1  1  0.60246959  0.87857760  0.12618927  1
  Ca  Ca2  1  0.29402626  0.01813468  0.82131686  1
  Ca  Ca3  1  0.72072264  0.13593546  0.44883030  1
  Ge  Ge4  1  0.02276681  0.57307663  0.64037363  1
  B  B5  1  0.18157516  0.56230247  0.95434851  1
  B  B6  1  0.78796788  0.23144599  0.05395895  1
  C  C7  1  0.47308170  0.72218720  0.39191586  1
  O  O8  1  0.01376918  0.27663962  0.63031726  1
  O  O9  1  0.03732512  0.37177657  0.00876708  1
  O  O10  1  0.23453671  0.60771627  0.80049103  1
  O  O11  1  0.28075651  0.93162554  0.39151617  1
  O  O12  1  0.28986811  0.69695776  0.04648848  1
  O  O13  1  0.37525032  0.54735263  0.47648447  1
  O  O14  1  0.65332384  0.22656156  0.19801552  1
  O  O15  1  0.72602631  0.83952411  0.63073996  1
  O  O16  1  0.73365297  0.08629142  0.94855407  1
  O  O17  1  0.75714880  0.66601889  0.31092466  1
