# generated using pymatgen
data_Li2Ca4Zn2Sn2As7Rh
_symmetry_space_group_name_H-M   P1
_cell_length_a   6.85907000
_cell_length_b   8.01390558
_cell_length_c   8.28286242
_cell_angle_alpha   73.60518457
_cell_angle_beta   68.96602801
_cell_angle_gamma   72.54808679
_symmetry_Int_Tables_number   1
_chemical_formula_structural   Li2Ca4Zn2Sn2As7Rh
_chemical_formula_sum   'Li2 Ca4 Zn2 Sn2 As7 Rh1'
_cell_volume   397.52214303
_cell_formula_units_Z   1
loop_
 _symmetry_equiv_pos_site_id
 _symmetry_equiv_pos_as_xyz
  1  'x, y, z'
loop_
 _atom_site_type_symbol
 _atom_site_label
 _atom_site_symmetry_multiplicity
 _atom_site_fract_x
 _atom_site_fract_y
 _atom_site_fract_z
 _atom_site_occupancy
  Li  Li0  1  0.15218960  0.14225340  0.32099901  1
  Li  Li1  1  0.48444369  0.62274179  0.06805720  1
  Ca  Ca2  1  0.02856027  0.52627470  0.45659972  1
  Ca  Ca3  1  0.46268566  0.53903467  0.61887101  1
  Ca  Ca4  1  0.55067776  0.00378871  0.49174033  1
  Ca  Ca5  1  0.59567726  0.00483149  0.93750777  1
  Zn  Zn6  1  0.75326089  0.37533731  0.28243500  1
  Zn  Zn7  1  0.79894487  0.36602712  0.84745223  1
  Sn  Sn8  1  0.02099628  0.00595816  0.09122829  1
  Sn  Sn9  1  0.13815861  0.45755516  0.03222308  1
  As  As10  1  0.17507124  0.80213042  0.83290398  1
  As  As11  1  0.20384435  0.25839199  0.78802741  1
  As  As12  1  0.27552396  0.81019911  0.32615271  1
  As  As13  1  0.51548012  0.28206376  0.15375079  1
  As  As14  1  0.68359071  0.71509254  0.24937828  1
  As  As15  1  0.72208266  0.70612394  0.74627784  1
  As  As16  1  0.81915610  0.20609444  0.57874779  1
  Rh  Rh17  1  0.00921964  0.87735612  0.60605761  1
