# generated using pymatgen
data_Li2GaSn3Rh
_symmetry_space_group_name_H-M   P1
_cell_length_a   5.24653375
_cell_length_b   5.35353515
_cell_length_c   5.42870914
_cell_angle_alpha   90.94911968
_cell_angle_beta   116.83197106
_cell_angle_gamma   96.14213935
_symmetry_Int_Tables_number   1
_chemical_formula_structural   Li2GaSn3Rh
_chemical_formula_sum   'Li2 Ga1 Sn3 Rh1'
_cell_volume   134.91906573
_cell_formula_units_Z   1
loop_
 _symmetry_equiv_pos_site_id
 _symmetry_equiv_pos_as_xyz
  1  'x, y, z'
loop_
 _atom_site_type_symbol
 _atom_site_label
 _atom_site_symmetry_multiplicity
 _atom_site_fract_x
 _atom_site_fract_y
 _atom_site_fract_z
 _atom_site_occupancy
  Li  Li0  1  0.01332504  0.81241086  0.21971650  1
  Li  Li1  1  0.48508912  0.53956278  0.20481199  1
  Ga  Ga2  1  0.48353041  0.53754592  0.70794294  1
  Sn  Sn3  1  0.29002861  0.00809899  0.86961238  1
  Sn  Sn4  1  0.64382233  0.04238138  0.52149738  1
  Sn  Sn5  1  0.96575713  0.31358244  0.19562118  1
  Rh  Rh6  1  0.97492131  0.52128818  0.70435315  1
