# generated using pymatgen
data_Li2MoO4
_symmetry_space_group_name_H-M   Pm
_cell_length_a   5.66494015
_cell_length_b   6.35992011
_cell_length_c   5.75816133
_cell_angle_alpha   90.00000000
_cell_angle_beta   93.99509578
_cell_angle_gamma   90.00000000
_symmetry_Int_Tables_number   6
_chemical_formula_structural   Li2MoO4
_chemical_formula_sum   'Li4 Mo2 O8'
_cell_volume   206.95417986
_cell_formula_units_Z   2
loop_
 _symmetry_equiv_pos_site_id
 _symmetry_equiv_pos_as_xyz
  1  'x, y, z'
  2  'x, -y, z'
loop_
 _atom_site_type_symbol
 _atom_site_label
 _atom_site_symmetry_multiplicity
 _atom_site_fract_x
 _atom_site_fract_y
 _atom_site_fract_z
 _atom_site_occupancy
  Li  Li0  2  0.47799615  0.25162757  0.80653571  1
  Li  Li1  1  0.57691473  0.50000000  0.37189564  1
  Li  Li2  1  0.82233063  0.00000000  0.02207694  1
  Mo  Mo3  1  0.34571427  0.00000000  0.30541244  1
  Mo  Mo4  1  0.96817624  0.50000000  0.78118090  1
  O  O5  2  0.44682796  0.22849957  0.46128360  1
  O  O6  2  0.82179408  0.27575352  0.88667688  1
  O  O7  1  0.03972243  0.00000000  0.28661596  1
  O  O8  1  0.28254613  0.50000000  0.86367673  1
  O  O9  1  0.45146047  0.00000000  0.01515817  1
  O  O10  1  0.90813356  0.50000000  0.48087018  1
