# generated using pymatgen
data_Li2MgIn2O5
_symmetry_space_group_name_H-M   C2/m
_cell_length_a   9.88428219
_cell_length_b   4.40107154
_cell_length_c   6.91846953
_cell_angle_alpha   90.00000000
_cell_angle_beta   134.18483639
_cell_angle_gamma   90.00000000
_symmetry_Int_Tables_number   12
_chemical_formula_structural   Li2MgIn2O5
_chemical_formula_sum   'Li4 Mg2 In4 O10'
_cell_volume   215.81933282
_cell_formula_units_Z   2
loop_
 _symmetry_equiv_pos_site_id
 _symmetry_equiv_pos_as_xyz
  1  'x, y, z'
  2  '-x, -y, -z'
  3  '-x, y, -z'
  4  'x, -y, z'
  5  'x+1/2, y+1/2, z'
  6  '-x+1/2, -y+1/2, -z'
  7  '-x+1/2, y+1/2, -z'
  8  'x+1/2, -y+1/2, z'
loop_
 _atom_site_type_symbol
 _atom_site_label
 _atom_site_symmetry_multiplicity
 _atom_site_fract_x
 _atom_site_fract_y
 _atom_site_fract_z
 _atom_site_occupancy
  Li  Li0  4  0.11146626  0.50000000  0.82331181  1
  Mg  Mg1  2  0.00000000  0.00000000  0.00000000  1
  In  In2  4  0.19959101  0.00000000  0.61147417  1
  O  O3  4  0.09075996  0.00000000  0.79290250  1
  O  O4  4  0.22153060  0.50000000  0.62199822  1
  O  O5  2  0.00000000  0.50000000  0.00000000  1
