# generated using pymatgen
data_Li2ZnCdF6
_symmetry_space_group_name_H-M   Cm
_cell_length_a   17.71478454
_cell_length_b   3.63511459
_cell_length_c   3.99586407
_cell_angle_alpha   90.00000000
_cell_angle_beta   99.04638626
_cell_angle_gamma   90.00000000
_symmetry_Int_Tables_number   8
_chemical_formula_structural   Li2ZnCdF6
_chemical_formula_sum   'Li4 Zn2 Cd2 F12'
_cell_volume   254.11410948
_cell_formula_units_Z   2
loop_
 _symmetry_equiv_pos_site_id
 _symmetry_equiv_pos_as_xyz
  1  'x, y, z'
  2  'x, -y, z'
  3  'x+1/2, y+1/2, z'
  4  'x+1/2, -y+1/2, z'
loop_
 _atom_site_type_symbol
 _atom_site_label
 _atom_site_symmetry_multiplicity
 _atom_site_fract_x
 _atom_site_fract_y
 _atom_site_fract_z
 _atom_site_occupancy
  Li  Li0  2  0.16097241  0.50000000  0.35466092  1
  Li  Li1  2  0.39115739  0.50000000  0.44538172  1
  Zn  Zn2  2  0.01434591  0.00000000  0.03208673  1
  Cd  Cd3  2  0.28680654  0.00000000  0.88042685  1
  F  F4  2  0.06204723  0.50000000  0.07389516  1
  F  F5  2  0.17778098  0.00000000  0.50135646  1
  F  F6  2  0.23725025  0.50000000  0.06869018  1
  F  F7  2  0.34996614  0.00000000  0.43325173  1
  F  F8  2  0.39467413  0.50000000  0.95082669  1
  F  F9  2  0.49936976  0.50000000  0.52338098  1
