# generated using pymatgen
data_Li3Cu2NiPt3
_symmetry_space_group_name_H-M   P1
_cell_length_a   4.56086923
_cell_length_b   4.64419413
_cell_length_c   6.96109716
_cell_angle_alpha   71.62065036
_cell_angle_beta   73.31794590
_cell_angle_gamma   60.58028149
_symmetry_Int_Tables_number   1
_chemical_formula_structural   Li3Cu2NiPt3
_chemical_formula_sum   'Li3 Cu2 Ni1 Pt3'
_cell_volume   120.31312391
_cell_formula_units_Z   1
loop_
 _symmetry_equiv_pos_site_id
 _symmetry_equiv_pos_as_xyz
  1  'x, y, z'
loop_
 _atom_site_type_symbol
 _atom_site_label
 _atom_site_symmetry_multiplicity
 _atom_site_fract_x
 _atom_site_fract_y
 _atom_site_fract_z
 _atom_site_occupancy
  Li  Li0  1  0.36380390  0.59934714  0.16274727  1
  Li  Li1  1  0.50796938  0.35253278  0.82450466  1
  Li  Li2  1  0.70529581  0.91993532  0.16594184  1
  Cu  Cu3  1  0.17628480  0.02159242  0.82967419  1
  Cu  Cu4  1  0.27342875  0.80463086  0.50150124  1
  Ni  Ni5  1  0.85514540  0.67629244  0.82159538  1
  Pt  Pt6  1  0.02662566  0.27037643  0.14626629  1
  Pt  Pt7  1  0.61527547  0.12648258  0.50291924  1
  Pt  Pt8  1  0.94609646  0.46863518  0.49708133  1
