# generated using pymatgen
data_Li4I5O
_symmetry_space_group_name_H-M   P1
_cell_length_a   4.96247177
_cell_length_b   5.10085385
_cell_length_c   11.70430521
_cell_angle_alpha   96.67515539
_cell_angle_beta   95.83947242
_cell_angle_gamma   96.08209363
_symmetry_Int_Tables_number   1
_chemical_formula_structural   Li4I5O
_chemical_formula_sum   'Li4 I5 O1'
_cell_volume   290.64672168
_cell_formula_units_Z   1
loop_
 _symmetry_equiv_pos_site_id
 _symmetry_equiv_pos_as_xyz
  1  'x, y, z'
loop_
 _atom_site_type_symbol
 _atom_site_label
 _atom_site_symmetry_multiplicity
 _atom_site_fract_x
 _atom_site_fract_y
 _atom_site_fract_z
 _atom_site_occupancy
  Li  Li0  1  0.04028604  0.91087605  0.35516991  1
  Li  Li1  1  0.26377980  0.87369168  0.80946415  1
  Li  Li2  1  0.49658618  0.42458790  0.70429382  1
  Li  Li3  1  0.72296169  0.64528597  0.95578469  1
  I  I4  1  0.14836902  0.37930827  0.49930440  1
  I  I5  1  0.19008165  0.36042511  0.96316845  1
  I  I6  1  0.49871702  0.68173757  0.31129117  1
  I  I7  1  0.75049290  0.94952197  0.69091101  1
  I  I8  1  0.85432574  0.05647853  0.12681767  1
  O  O9  1  0.41094152  0.57364987  0.84951688  1
