# generated using pymatgen
data_LiCl3
_symmetry_space_group_name_H-M   C2
_cell_length_a   6.77830031
_cell_length_b   7.38158596
_cell_length_c   4.47424844
_cell_angle_alpha   90.00000000
_cell_angle_beta   125.80304043
_cell_angle_gamma   90.00000000
_symmetry_Int_Tables_number   5
_chemical_formula_structural   LiCl3
_chemical_formula_sum   'Li2 Cl6'
_cell_volume   181.56368496
_cell_formula_units_Z   2
loop_
 _symmetry_equiv_pos_site_id
 _symmetry_equiv_pos_as_xyz
  1  'x, y, z'
  2  '-x, -y+13/54, -z'
  3  '-x, y, -z'
  4  'x, -y+13/54, z'
  5  'x+1/2, y+1/2, z'
  6  '-x+1/2, -y+20/27, -z'
  7  '-x+1/2, y+1/2, -z'
  8  'x+1/2, -y+20/27, z'
loop_
 _atom_site_type_symbol
 _atom_site_label
 _atom_site_symmetry_multiplicity
 _atom_site_fract_x
 _atom_site_fract_y
 _atom_site_fract_z
 _atom_site_occupancy
  Li  Li0  2  0.00000000  0.62036820  0.00000000  1
  Cl  Cl1  4  0.00000000  0.33292601  0.50000000  1
  Cl  Cl2  2  0.00000000  0.11418107  0.00000000  1
