# generated using pymatgen
data_LiHCClO2
_symmetry_space_group_name_H-M   P1
_cell_length_a   3.34012969
_cell_length_b   3.83890614
_cell_length_c   6.97761159
_cell_angle_alpha   103.42227931
_cell_angle_beta   96.97951858
_cell_angle_gamma   104.14663965
_symmetry_Int_Tables_number   1
_chemical_formula_structural   LiHCClO2
_chemical_formula_sum   'Li1 H1 C1 Cl1 O2'
_cell_volume   82.86637608
_cell_formula_units_Z   1
loop_
 _symmetry_equiv_pos_site_id
 _symmetry_equiv_pos_as_xyz
  1  'x, y, z'
loop_
 _atom_site_type_symbol
 _atom_site_label
 _atom_site_symmetry_multiplicity
 _atom_site_fract_x
 _atom_site_fract_y
 _atom_site_fract_z
 _atom_site_occupancy
  Li  Li0  1  0.19977723  0.45552096  0.55356801  1
  H  H1  1  0.59515056  0.35157406  0.04366573  1
  C  C2  1  0.23307741  0.41846522  0.98416292  1
  Cl  Cl3  1  0.54801489  0.99322519  0.46956842  1
  O  O4  1  0.24397519  0.57259080  0.84970815  1
  O  O5  1  0.96542836  0.30042128  0.08378787  1
