# generated using pymatgen
data_LiHfReSiO8
_symmetry_space_group_name_H-M   P1
_cell_length_a   5.39691833
_cell_length_b   5.60863114
_cell_length_c   5.66589337
_cell_angle_alpha   81.34367234
_cell_angle_beta   64.49507322
_cell_angle_gamma   75.41340793
_symmetry_Int_Tables_number   1
_chemical_formula_structural   LiHfReSiO8
_chemical_formula_sum   'Li1 Hf1 Re1 Si1 O8'
_cell_volume   149.62653492
_cell_formula_units_Z   1
loop_
 _symmetry_equiv_pos_site_id
 _symmetry_equiv_pos_as_xyz
  1  'x, y, z'
loop_
 _atom_site_type_symbol
 _atom_site_label
 _atom_site_symmetry_multiplicity
 _atom_site_fract_x
 _atom_site_fract_y
 _atom_site_fract_z
 _atom_site_occupancy
  Li  Li0  1  0.89876887  0.74012792  0.02450200  1
  Hf  Hf1  1  0.73618712  0.25900329  0.26117465  1
  Re  Re2  1  0.25602774  0.76085184  0.39348108  1
  Si  Si3  1  0.42928307  0.28151705  0.94327781  1
  O  O4  1  0.04272517  0.91913878  0.21025180  1
  O  O5  1  0.09222152  0.38029403  0.03429569  1
  O  O6  1  0.10295797  0.92691210  0.67401886  1
  O  O7  1  0.11971244  0.49788243  0.50652196  1
  O  O8  1  0.51884322  0.05332808  0.14365427  1
  O  O9  1  0.55077745  0.49135497  0.01545720  1
  O  O10  1  0.58633030  0.19537572  0.64446426  1
  O  O11  1  0.61056501  0.63328222  0.37921792  1
