# generated using pymatgen
data_LiLaCoO5
_symmetry_space_group_name_H-M   P1
_cell_length_a   4.49734144
_cell_length_b   4.50410680
_cell_length_c   5.39815534
_cell_angle_alpha   90.00733581
_cell_angle_beta   94.79146828
_cell_angle_gamma   105.67335154
_symmetry_Int_Tables_number   1
_chemical_formula_structural   LiLaCoO5
_chemical_formula_sum   'Li1 La1 Co1 O5'
_cell_volume   104.88466422
_cell_formula_units_Z   1
loop_
 _symmetry_equiv_pos_site_id
 _symmetry_equiv_pos_as_xyz
  1  'x, y, z'
loop_
 _atom_site_type_symbol
 _atom_site_label
 _atom_site_symmetry_multiplicity
 _atom_site_fract_x
 _atom_site_fract_y
 _atom_site_fract_z
 _atom_site_occupancy
  Li  Li0  1  0.44850853  0.89723246  0.37257084  1
  La  La1  1  0.84049827  0.61772743  0.96374650  1
  Co  Co2  1  0.06168805  0.28716667  0.50149426  1
  O  O3  1  0.03005606  0.65009011  0.50828885  1
  O  O4  1  0.36593907  0.69853701  0.04635072  1
  O  O5  1  0.43048951  0.30764793  0.52974123  1
  O  O6  1  0.85728328  0.12548606  0.23983749  1
  O  O7  1  0.88446814  0.13052624  0.75086992  1
