# generated using pymatgen
data_LiLa4Sb2O11
_symmetry_space_group_name_H-M   P1
_cell_length_a   6.00018015
_cell_length_b   6.02417874
_cell_length_c   7.73946750
_cell_angle_alpha   87.92751691
_cell_angle_beta   86.12803042
_cell_angle_gamma   89.91515663
_symmetry_Int_Tables_number   1
_chemical_formula_structural   LiLa4Sb2O11
_chemical_formula_sum   'Li1 La4 Sb2 O11'
_cell_volume   278.93075610
_cell_formula_units_Z   1
loop_
 _symmetry_equiv_pos_site_id
 _symmetry_equiv_pos_as_xyz
  1  'x, y, z'
loop_
 _atom_site_type_symbol
 _atom_site_label
 _atom_site_symmetry_multiplicity
 _atom_site_fract_x
 _atom_site_fract_y
 _atom_site_fract_z
 _atom_site_occupancy
  Li  Li0  1  0.73750799  0.98917280  0.49428480  1
  La  La1  1  0.18645840  0.91656500  0.75253137  1
  La  La2  1  0.23371985  0.93726941  0.24806475  1
  La  La3  1  0.68234487  0.48822960  0.23112601  1
  La  La4  1  0.69876954  0.45314853  0.74853077  1
  Sb  Sb5  1  0.16823091  0.44059868  0.50624976  1
  Sb  Sb6  1  0.71955193  0.96631734  0.99473376  1
  O  O7  1  0.02294425  0.08632819  0.02915344  1
  O  O8  1  0.27989511  0.53589531  0.27321313  1
  O  O9  1  0.34618636  0.14670118  0.50224138  1
  O  O10  1  0.42178988  0.62173149  0.60526779  1
  O  O11  1  0.42941886  0.81229769  0.96766255  1
  O  O12  1  0.56399188  0.26010297  0.01858012  1
  O  O13  1  0.65781359  0.88935981  0.25016304  1
  O  O14  1  0.77418594  0.05360674  0.74452969  1
  O  O15  1  0.87163586  0.66553068  0.95608013  1
  O  O16  1  0.88274786  0.28996577  0.43319913  1
  O  O17  1  0.98565781  0.73486561  0.52414441  1
