# generated using pymatgen
data_LiMgTlCr4Te2Br2O5
_symmetry_space_group_name_H-M   P1
_cell_length_a   3.98661017
_cell_length_b   5.87964248
_cell_length_c   13.41329733
_cell_angle_alpha   78.81364812
_cell_angle_beta   89.63544547
_cell_angle_gamma   89.63817418
_symmetry_Int_Tables_number   1
_chemical_formula_structural   LiMgTlCr4Te2Br2O5
_chemical_formula_sum   'Li1 Mg1 Tl1 Cr4 Te2 Br2 O5'
_cell_volume   308.42192963
_cell_formula_units_Z   1
loop_
 _symmetry_equiv_pos_site_id
 _symmetry_equiv_pos_as_xyz
  1  'x, y, z'
loop_
 _atom_site_type_symbol
 _atom_site_label
 _atom_site_symmetry_multiplicity
 _atom_site_fract_x
 _atom_site_fract_y
 _atom_site_fract_z
 _atom_site_occupancy
  Li  Li0  1  0.76198398  0.21696502  0.24454290  1
  Mg  Mg1  1  0.26443441  0.79887587  0.21446917  1
  Tl  Tl2  1  0.25849491  0.08250729  0.45229678  1
  Cr  Cr3  1  0.25115014  0.82138324  0.78559899  1
  Cr  Cr4  1  0.25301164  0.33157563  0.78649216  1
  Cr  Cr5  1  0.75475169  0.63566065  0.63824466  1
  Cr  Cr6  1  0.76206904  0.65814114  0.37061881  1
  Te  Te7  1  0.75006888  0.53191797  0.88638446  1
  Te  Te8  1  0.75463102  0.12837750  0.67444518  1
  Br  Br9  1  0.24877679  0.00636859  0.94225163  1
  Br  Br10  1  0.26323508  0.41151182  0.13894055  1
  O  O11  1  0.25431304  0.62340531  0.67673530  1
  O  O12  1  0.26195157  0.70461468  0.36150365  1
  O  O13  1  0.76020023  0.74832009  0.49343142  1
  O  O14  1  0.76254977  0.36467293  0.36270020  1
  O  O15  1  0.76319765  0.86895693  0.23999911  1
