# generated using pymatgen
data_LiMgZrAl2
_symmetry_space_group_name_H-M   Cm
_cell_length_a   6.12068959
_cell_length_b   5.32261779
_cell_length_c   6.07243984
_cell_angle_alpha   90.00000000
_cell_angle_beta   92.46593269
_cell_angle_gamma   90.00000000
_symmetry_Int_Tables_number   8
_chemical_formula_structural   LiMgZrAl2
_chemical_formula_sum   'Li2 Mg2 Zr2 Al4'
_cell_volume   197.64530664
_cell_formula_units_Z   2
loop_
 _symmetry_equiv_pos_site_id
 _symmetry_equiv_pos_as_xyz
  1  'x, y, z'
  2  'x, -y, z'
  3  'x+1/2, y+1/2, z'
  4  'x+1/2, -y+1/2, z'
loop_
 _atom_site_type_symbol
 _atom_site_label
 _atom_site_symmetry_multiplicity
 _atom_site_fract_x
 _atom_site_fract_y
 _atom_site_fract_z
 _atom_site_occupancy
  Li  Li0  2  0.13833162  0.00000000  0.57115246  1
  Mg  Mg1  2  0.00193621  0.50000000  0.77396744  1
  Zr  Zr2  2  0.22937611  0.50000000  0.33809709  1
  Al  Al3  2  0.27338300  0.00000000  0.17733710  1
  Al  Al4  2  0.41668424  0.50000000  0.92473994  1
