# generated using pymatgen
data_LiMgCl2
_symmetry_space_group_name_H-M   Cm
_cell_length_a   7.65990992
_cell_length_b   4.48214634
_cell_length_c   6.66715012
_cell_angle_alpha   90.00000000
_cell_angle_beta   113.19474088
_cell_angle_gamma   90.00000000
_symmetry_Int_Tables_number   8
_chemical_formula_structural   LiMgCl2
_chemical_formula_sum   'Li2 Mg2 Cl4'
_cell_volume   210.40035887
_cell_formula_units_Z   2
loop_
 _symmetry_equiv_pos_site_id
 _symmetry_equiv_pos_as_xyz
  1  'x, y, z'
  2  'x, -y, z'
  3  'x+1/2, y+1/2, z'
  4  'x+1/2, -y+1/2, z'
loop_
 _atom_site_type_symbol
 _atom_site_label
 _atom_site_symmetry_multiplicity
 _atom_site_fract_x
 _atom_site_fract_y
 _atom_site_fract_z
 _atom_site_occupancy
  Li  Li0  2  0.23663246  0.50000000  0.24500455  1
  Mg  Mg1  2  0.24808434  0.00000000  0.76766277  1
  Cl  Cl2  2  0.10723187  0.00000000  0.35556969  1
  Cl  Cl3  2  0.10782176  0.50000000  0.83953687  1
