# generated using pymatgen
data_LiMnV2O6
_symmetry_space_group_name_H-M   P1
_cell_length_a   4.97524861
_cell_length_b   5.11156891
_cell_length_c   6.49033315
_cell_angle_alpha   88.89216969
_cell_angle_beta   88.72651223
_cell_angle_gamma   72.01815105
_symmetry_Int_Tables_number   1
_chemical_formula_structural   LiMnV2O6
_chemical_formula_sum   'Li1 Mn1 V2 O6'
_cell_volume   156.94314617
_cell_formula_units_Z   1
loop_
 _symmetry_equiv_pos_site_id
 _symmetry_equiv_pos_as_xyz
  1  'x, y, z'
loop_
 _atom_site_type_symbol
 _atom_site_label
 _atom_site_symmetry_multiplicity
 _atom_site_fract_x
 _atom_site_fract_y
 _atom_site_fract_z
 _atom_site_occupancy
  Li  Li0  1  0.88192309  0.89391701  0.07196350  1
  Mn  Mn1  1  0.37786032  0.39617971  0.07673689  1
  V  V2  1  0.39028946  0.90184404  0.41164965  1
  V  V3  1  0.87299874  0.38653659  0.72994186  1
  O  O4  1  0.02163622  0.55041897  0.90663219  1
  O  O5  1  0.13895845  0.15280771  0.58600710  1
  O  O6  1  0.21870460  0.73922990  0.24630127  1
  O  O7  1  0.57823423  0.08577616  0.27205194  1
  O  O8  1  0.62818329  0.63601771  0.58301951  1
  O  O9  1  0.69711701  0.20205572  0.87520593  1
