# generated using pymatgen
data_LiMn3GePbS4NCl
_symmetry_space_group_name_H-M   P1
_cell_length_a   5.05280871
_cell_length_b   6.84147708
_cell_length_c   7.07440872
_cell_angle_alpha   74.89472491
_cell_angle_beta   87.82793391
_cell_angle_gamma   88.09904777
_symmetry_Int_Tables_number   1
_chemical_formula_structural   LiMn3GePbS4NCl
_chemical_formula_sum   'Li1 Mn3 Ge1 Pb1 S4 N1 Cl1'
_cell_volume   235.86487372
_cell_formula_units_Z   1
loop_
 _symmetry_equiv_pos_site_id
 _symmetry_equiv_pos_as_xyz
  1  'x, y, z'
loop_
 _atom_site_type_symbol
 _atom_site_label
 _atom_site_symmetry_multiplicity
 _atom_site_fract_x
 _atom_site_fract_y
 _atom_site_fract_z
 _atom_site_occupancy
  Li  Li0  1  0.99536334  0.03733102  0.36918571  1
  Mn  Mn1  1  0.48475671  0.22063327  0.57480511  1
  Mn  Mn2  1  0.51302038  0.21267137  0.01395209  1
  Mn  Mn3  1  0.51747542  0.68869101  0.60112152  1
  Ge  Ge4  1  0.95720927  0.33027507  0.68152186  1
  Pb  Pb5  1  0.99731085  0.71080828  0.99651741  1
  S  S6  1  0.01958186  0.27096782  0.02427436  1
  S  S7  1  0.02143804  0.68709941  0.60818416  1
  S  S8  1  0.49800148  0.01478971  0.35425757  1
  S  S9  1  0.49982927  0.92525350  0.84676215  1
  N  N10  1  0.56510513  0.39040033  0.74079606  1
  Cl  Cl11  1  0.49896028  0.51164871  0.29000763  1
