# generated using pymatgen
data_LiNbF4
_symmetry_space_group_name_H-M   C2
_cell_length_a   5.81039997
_cell_length_b   6.03533777
_cell_length_c   5.48225198
_cell_angle_alpha   90.00000000
_cell_angle_beta   119.41087801
_cell_angle_gamma   90.00000000
_symmetry_Int_Tables_number   5
_chemical_formula_structural   LiNbF4
_chemical_formula_sum   'Li2 Nb2 F8'
_cell_volume   167.47303237
_cell_formula_units_Z   2
loop_
 _symmetry_equiv_pos_site_id
 _symmetry_equiv_pos_as_xyz
  1  'x, y, z'
  2  '-x, y, -z'
  3  'x+1/2, y+1/2, z'
  4  '-x+1/2, y+1/2, -z'
loop_
 _atom_site_type_symbol
 _atom_site_label
 _atom_site_symmetry_multiplicity
 _atom_site_fract_x
 _atom_site_fract_y
 _atom_site_fract_z
 _atom_site_occupancy
  Li  Li0  2  0.00000000  0.47679818  0.00000000  1
  Nb  Nb1  2  0.00000000  0.74650459  0.50000000  1
  F  F2  4  0.22385421  0.73794597  0.93373469  1
  F  F3  4  0.23717590  0.49421303  0.46244430  1
