# generated using pymatgen
data_LiNd2MgInSn3Rh2
_symmetry_space_group_name_H-M   P1
_cell_length_a   5.83101012
_cell_length_b   5.99848603
_cell_length_c   7.18627279
_cell_angle_alpha   89.43194257
_cell_angle_beta   66.35968137
_cell_angle_gamma   89.43175291
_symmetry_Int_Tables_number   1
_chemical_formula_structural   LiNd2MgInSn3Rh2
_chemical_formula_sum   'Li1 Nd2 Mg1 In1 Sn3 Rh2'
_cell_volume   230.24618053
_cell_formula_units_Z   1
loop_
 _symmetry_equiv_pos_site_id
 _symmetry_equiv_pos_as_xyz
  1  'x, y, z'
loop_
 _atom_site_type_symbol
 _atom_site_label
 _atom_site_symmetry_multiplicity
 _atom_site_fract_x
 _atom_site_fract_y
 _atom_site_fract_z
 _atom_site_occupancy
  Li  Li0  1  0.13192891  0.00334537  0.87831007  1
  Nd  Nd1  1  0.14957233  0.77411425  0.32319733  1
  Nd  Nd2  1  0.57918950  0.26697293  0.04285677  1
  Mg  Mg3  1  0.59782883  0.50344573  0.48369883  1
  In  In4  1  0.57352150  0.01133011  0.47510786  1
  Sn  Sn5  1  0.08491761  0.26701667  0.55570959  1
  Sn  Sn6  1  0.14301263  0.51198762  0.90220440  1
  Sn  Sn7  1  0.63366134  0.77634771  0.82111308  1
  Rh  Rh8  1  0.74558508  0.75500900  0.14125464  1
  Rh  Rh9  1  0.98192832  0.25247930  0.22929590  1
