# generated using pymatgen
data_LiNdTiClO4
_symmetry_space_group_name_H-M   P1
_cell_length_a   3.75570310
_cell_length_b   3.98683408
_cell_length_c   8.93389943
_cell_angle_alpha   87.32307643
_cell_angle_beta   89.16600192
_cell_angle_gamma   65.11451768
_symmetry_Int_Tables_number   1
_chemical_formula_structural   LiNdTiClO4
_chemical_formula_sum   'Li1 Nd1 Ti1 Cl1 O4'
_cell_volume   121.21569350
_cell_formula_units_Z   1
loop_
 _symmetry_equiv_pos_site_id
 _symmetry_equiv_pos_as_xyz
  1  'x, y, z'
loop_
 _atom_site_type_symbol
 _atom_site_label
 _atom_site_symmetry_multiplicity
 _atom_site_fract_x
 _atom_site_fract_y
 _atom_site_fract_z
 _atom_site_occupancy
  Li  Li0  1  0.78700645  0.89897170  0.20857015  1
  Nd  Nd1  1  0.76851395  0.97272665  0.71260083  1
  Ti  Ti2  1  0.48524923  0.54813214  0.42980113  1
  Cl  Cl3  1  0.10454105  0.28518866  0.92533143  1
  O  O4  1  0.05526333  0.38019610  0.48950445  1
  O  O5  1  0.38105314  0.67972771  0.24066515  1
  O  O6  1  0.42396562  0.63710489  0.66116397  1
  O  O7  1  0.66950578  0.00891821  0.43643448  1
