# generated using pymatgen
data_LiPr5CoSiOsRu
_symmetry_space_group_name_H-M   Pm
_cell_length_a   5.79251150
_cell_length_b   4.09090291
_cell_length_c   10.58846840
_cell_angle_alpha   90.00000000
_cell_angle_beta   90.75557476
_cell_angle_gamma   90.00000000
_symmetry_Int_Tables_number   6
_chemical_formula_structural   LiPr5CoSiOsRu
_chemical_formula_sum   'Li1 Pr5 Co1 Si1 Os1 Ru1'
_cell_volume   250.88890602
_cell_formula_units_Z   1
loop_
 _symmetry_equiv_pos_site_id
 _symmetry_equiv_pos_as_xyz
  1  'x, y, z'
  2  'x, -y, z'
loop_
 _atom_site_type_symbol
 _atom_site_label
 _atom_site_symmetry_multiplicity
 _atom_site_fract_x
 _atom_site_fract_y
 _atom_site_fract_z
 _atom_site_occupancy
  Li  Li0  1  0.60280156  0.00000000  0.35529856  1
  Pr  Pr1  1  0.06354573  0.00000000  0.67336631  1
  Pr  Pr2  1  0.07454204  0.50000000  0.31692927  1
  Pr  Pr3  1  0.33006943  0.50000000  0.92027681  1
  Pr  Pr4  1  0.55376021  0.50000000  0.58307709  1
  Pr  Pr5  1  0.82063817  0.00000000  0.03703713  1
  Co  Co6  1  0.56830544  0.00000000  0.76384735  1
  Si  Si7  1  0.34068163  0.00000000  0.15547425  1
  Os  Os8  1  0.54905027  0.50000000  0.19671067  1
  Ru  Ru9  1  0.83310883  0.50000000  0.81816395  1
