# generated using pymatgen
data_LiPuGa2FeBRh2
_symmetry_space_group_name_H-M   Cm
_cell_length_a   8.38057234
_cell_length_b   6.79137537
_cell_length_c   4.77866136
_cell_angle_alpha   90.00000000
_cell_angle_beta   120.26486218
_cell_angle_gamma   90.00000000
_symmetry_Int_Tables_number   8
_chemical_formula_structural   LiPuGa2FeBRh2
_chemical_formula_sum   'Li2 Pu2 Ga4 Fe2 B2 Rh4'
_cell_volume   234.91081021
_cell_formula_units_Z   2
loop_
 _symmetry_equiv_pos_site_id
 _symmetry_equiv_pos_as_xyz
  1  'x, y, z'
  2  'x, -y, z'
  3  'x+1/2, y+1/2, z'
  4  'x+1/2, -y+1/2, z'
loop_
 _atom_site_type_symbol
 _atom_site_label
 _atom_site_symmetry_multiplicity
 _atom_site_fract_x
 _atom_site_fract_y
 _atom_site_fract_z
 _atom_site_occupancy
  Li  Li0  2  0.38007637  0.00000000  0.70546913  1
  Pu  Pu1  2  0.39520926  0.50000000  0.47969519  1
  Ga  Ga2  4  0.20100982  0.29866296  0.80754475  1
  Fe  Fe3  2  0.27011355  0.00000000  0.11409022  1
  B  B4  2  0.03805167  0.50000000  0.34060948  1
  Rh  Rh5  4  0.05018440  0.21479336  0.18872237  1
