# generated using pymatgen
data_LiSbS2
_symmetry_space_group_name_H-M   Pm
_cell_length_a   3.92468871
_cell_length_b   3.88328565
_cell_length_c   5.62685680
_cell_angle_alpha   90.00000000
_cell_angle_beta   91.62296683
_cell_angle_gamma   90.00000000
_symmetry_Int_Tables_number   6
_chemical_formula_structural   LiSbS2
_chemical_formula_sum   'Li1 Sb1 S2'
_cell_volume   85.72276306
_cell_formula_units_Z   1
loop_
 _symmetry_equiv_pos_site_id
 _symmetry_equiv_pos_as_xyz
  1  'x, y, z'
  2  'x, -y, z'
loop_
 _atom_site_type_symbol
 _atom_site_label
 _atom_site_symmetry_multiplicity
 _atom_site_fract_x
 _atom_site_fract_y
 _atom_site_fract_z
 _atom_site_occupancy
  Li  Li0  1  0.31574726  0.50000000  0.67021952  1
  Sb  Sb1  1  0.84120792  0.00000000  0.12907543  1
  S  S2  1  0.29309560  0.50000000  0.19196687  1
  S  S3  1  0.80955939  0.00000000  0.70232647  1
