# generated using pymatgen
data_LiSCl2
_symmetry_space_group_name_H-M   Cm
_cell_length_a   8.53214374
_cell_length_b   5.52247071
_cell_length_c   4.67494213
_cell_angle_alpha   90.00000000
_cell_angle_beta   121.10527022
_cell_angle_gamma   90.00000000
_symmetry_Int_Tables_number   8
_chemical_formula_structural   LiSCl2
_chemical_formula_sum   'Li2 S2 Cl4'
_cell_volume   188.60490046
_cell_formula_units_Z   2
loop_
 _symmetry_equiv_pos_site_id
 _symmetry_equiv_pos_as_xyz
  1  'x, y, z'
  2  'x, -y, z'
  3  'x+1/2, y+1/2, z'
  4  'x+1/2, -y+1/2, z'
loop_
 _atom_site_type_symbol
 _atom_site_label
 _atom_site_symmetry_multiplicity
 _atom_site_fract_x
 _atom_site_fract_y
 _atom_site_fract_z
 _atom_site_occupancy
  Li  Li0  2  0.07919942  0.00000000  0.41691301  1
  S  S1  2  0.23042261  0.50000000  0.07491645  1
  Cl  Cl2  2  0.16063171  0.50000000  0.43846554  1
  Cl  Cl3  2  0.19254189  0.00000000  0.01986652  1
