# generated using pymatgen
data_LiSO4
_symmetry_space_group_name_H-M   P1
_cell_length_a   4.81417406
_cell_length_b   4.97110052
_cell_length_c   4.99924550
_cell_angle_alpha   119.78691160
_cell_angle_beta   106.19059789
_cell_angle_gamma   99.59620038
_symmetry_Int_Tables_number   1
_chemical_formula_structural   LiSO4
_chemical_formula_sum   'Li1 S1 O4'
_cell_volume   92.78848593
_cell_formula_units_Z   1
loop_
 _symmetry_equiv_pos_site_id
 _symmetry_equiv_pos_as_xyz
  1  'x, y, z'
loop_
 _atom_site_type_symbol
 _atom_site_label
 _atom_site_symmetry_multiplicity
 _atom_site_fract_x
 _atom_site_fract_y
 _atom_site_fract_z
 _atom_site_occupancy
  Li  Li0  1  0.45134587  0.05356593  0.95111238  1
  S  S1  1  0.73622753  0.82312658  0.44096469  1
  O  O2  1  0.05870391  0.83030994  0.55177891  1
  O  O3  1  0.52245215  0.49812651  0.32806971  1
  O  O4  1  0.65572671  0.85450347  0.15249293  1
  O  O5  1  0.71220953  0.10329012  0.73053697  1
