# generated using pymatgen
data_LiTaNO
_symmetry_space_group_name_H-M   Amm2
_cell_length_a   4.13757072
_cell_length_b   3.60945289
_cell_length_c   5.94160576
_cell_angle_alpha   90.00000000
_cell_angle_beta   90.00000000
_cell_angle_gamma   90.00000000
_symmetry_Int_Tables_number   38
_chemical_formula_structural   LiTaNO
_chemical_formula_sum   'Li2 Ta2 N2 O2'
_cell_volume   88.73411871
_cell_formula_units_Z   2
loop_
 _symmetry_equiv_pos_site_id
 _symmetry_equiv_pos_as_xyz
  1  'x, y, z'
  2  '-x, -y, z'
  3  '-x, y, z'
  4  'x, -y, z'
  5  'x, y+1/2, z+1/2'
  6  '-x, -y+1/2, z+1/2'
  7  '-x, y+1/2, z+1/2'
  8  'x, -y+1/2, z+1/2'
loop_
 _atom_site_type_symbol
 _atom_site_label
 _atom_site_symmetry_multiplicity
 _atom_site_fract_x
 _atom_site_fract_y
 _atom_site_fract_z
 _atom_site_occupancy
  Li  Li0  2  0.00000000  0.00000000  0.42116840  1
  Ta  Ta1  2  0.50000000  0.00000000  0.07805238  1
  N  N2  2  0.50000000  0.00000000  0.42112835  1
  O  O3  2  0.00000000  0.00000000  0.07756347  1
