# generated using pymatgen
data_LiTh3SnGe2RhAu
_symmetry_space_group_name_H-M   Pm
_cell_length_a   6.18203882
_cell_length_b   4.35001188
_cell_length_c   7.74304961
_cell_angle_alpha   90.00000000
_cell_angle_beta   98.20591853
_cell_angle_gamma   90.00000000
_symmetry_Int_Tables_number   6
_chemical_formula_structural   LiTh3SnGe2RhAu
_chemical_formula_sum   'Li1 Th3 Sn1 Ge2 Rh1 Au1'
_cell_volume   206.09372364
_cell_formula_units_Z   1
loop_
 _symmetry_equiv_pos_site_id
 _symmetry_equiv_pos_as_xyz
  1  'x, y, z'
  2  'x, -y, z'
loop_
 _atom_site_type_symbol
 _atom_site_label
 _atom_site_symmetry_multiplicity
 _atom_site_fract_x
 _atom_site_fract_y
 _atom_site_fract_z
 _atom_site_occupancy
  Li  Li0  1  0.77702221  0.00000000  0.32881379  1
  Th  Th1  1  0.22431958  0.50000000  0.31483729  1
  Th  Th2  1  0.37561087  0.50000000  0.80720627  1
  Th  Th3  1  0.89738259  0.00000000  0.90292519  1
  Sn  Sn4  1  0.82085197  0.50000000  0.57516884  1
  Ge  Ge5  1  0.49750357  0.00000000  0.55719547  1
  Ge  Ge6  1  0.73716530  0.50000000  0.13637745  1
  Rh  Rh7  1  0.10452231  0.00000000  0.59467762  1
  Au  Au8  1  0.41928993  0.00000000  0.09781989  1
