# generated using pymatgen
data_LiTiClOF2
_symmetry_space_group_name_H-M   Amm2
_cell_length_a   3.12822382
_cell_length_b   6.45958379
_cell_length_c   8.29842205
_cell_angle_alpha   90.00000000
_cell_angle_beta   90.00000000
_cell_angle_gamma   90.00000000
_symmetry_Int_Tables_number   38
_chemical_formula_structural   LiTiClOF2
_chemical_formula_sum   'Li2 Ti2 Cl2 O2 F4'
_cell_volume   167.68641231
_cell_formula_units_Z   2
loop_
 _symmetry_equiv_pos_site_id
 _symmetry_equiv_pos_as_xyz
  1  'x, y, z'
  2  '-x, -y, z'
  3  '-x, y, z'
  4  'x, -y, z'
  5  'x, y+1/2, z+1/2'
  6  '-x, -y+1/2, z+1/2'
  7  '-x, y+1/2, z+1/2'
  8  'x, -y+1/2, z+1/2'
loop_
 _atom_site_type_symbol
 _atom_site_label
 _atom_site_symmetry_multiplicity
 _atom_site_fract_x
 _atom_site_fract_y
 _atom_site_fract_z
 _atom_site_occupancy
  Li  Li0  2  0.00000000  0.00000000  0.95049990  1
  Ti  Ti1  2  0.50000000  0.00000000  0.40156083  1
  Cl  Cl2  2  0.00000000  0.00000000  0.63232242  1
  O  O3  2  0.00000000  0.00000000  0.28139651  1
  F  F4  4  0.50000000  0.20362748  0.93362718  1
