# generated using pymatgen
data_LiTi2FeO4
_symmetry_space_group_name_H-M   Amm2
_cell_length_a   8.15098424
_cell_length_b   3.01078213
_cell_length_c   7.06273118
_cell_angle_alpha   90.00000000
_cell_angle_beta   90.00000000
_cell_angle_gamma   90.00000000
_symmetry_Int_Tables_number   38
_chemical_formula_structural   LiTi2FeO4
_chemical_formula_sum   'Li2 Ti4 Fe2 O8'
_cell_volume   173.32533955
_cell_formula_units_Z   2
loop_
 _symmetry_equiv_pos_site_id
 _symmetry_equiv_pos_as_xyz
  1  'x, y, z'
  2  '-x, -y, z'
  3  '-x, y, z'
  4  'x, -y, z'
  5  'x, y+1/2, z+1/2'
  6  '-x, -y+1/2, z+1/2'
  7  '-x, y+1/2, z+1/2'
  8  'x, -y+1/2, z+1/2'
loop_
 _atom_site_type_symbol
 _atom_site_label
 _atom_site_symmetry_multiplicity
 _atom_site_fract_x
 _atom_site_fract_y
 _atom_site_fract_z
 _atom_site_occupancy
  Li  Li0  2  0.00000000  0.00000000  0.18771549  1
  Ti  Ti1  4  0.23786383  0.00000000  0.48398112  1
  Fe  Fe2  2  0.50000000  0.00000000  0.20353572  1
  O  O3  4  0.24383619  0.00000000  0.20392444  1
  O  O4  2  0.00000000  0.00000000  0.49089517  1
  O  O5  2  0.50000000  0.00000000  0.48961975  1
