# generated using pymatgen
data_LiTiS2
_symmetry_space_group_name_H-M   P-1
_cell_length_a   3.52700472
_cell_length_b   3.53051749
_cell_length_c   11.82950607
_cell_angle_alpha   90.95112249
_cell_angle_beta   92.26616723
_cell_angle_gamma   89.99959535
_symmetry_Int_Tables_number   2
_chemical_formula_structural   LiTiS2
_chemical_formula_sum   'Li2 Ti2 S4'
_cell_volume   147.16729247
_cell_formula_units_Z   2
loop_
 _symmetry_equiv_pos_site_id
 _symmetry_equiv_pos_as_xyz
  1  'x, y, z'
  2  '-x, -y, -z'
loop_
 _atom_site_type_symbol
 _atom_site_label
 _atom_site_symmetry_multiplicity
 _atom_site_fract_x
 _atom_site_fract_y
 _atom_site_fract_z
 _atom_site_occupancy
  Li  Li0  2  0.29500236  0.26917146  0.82318410  1
  Ti  Ti1  2  0.23221285  0.24301812  0.38062824  1
  S  S2  2  0.20656590  0.23182485  0.18739361  1
  S  S3  2  0.26486754  0.25537270  0.60037864  1
