# generated using pymatgen
data_LiV3FeO8
_symmetry_space_group_name_H-M   Cm
_cell_length_a   7.42466630
_cell_length_b   6.07776649
_cell_length_c   7.12511288
_cell_angle_alpha   90.00000000
_cell_angle_beta   91.12438170
_cell_angle_gamma   90.00000000
_symmetry_Int_Tables_number   8
_chemical_formula_structural   LiV3FeO8
_chemical_formula_sum   'Li2 V6 Fe2 O16'
_cell_volume   321.46157502
_cell_formula_units_Z   2
loop_
 _symmetry_equiv_pos_site_id
 _symmetry_equiv_pos_as_xyz
  1  'x, y, z'
  2  'x, -y, z'
  3  'x+1/2, y+1/2, z'
  4  'x+1/2, -y+1/2, z'
loop_
 _atom_site_type_symbol
 _atom_site_label
 _atom_site_symmetry_multiplicity
 _atom_site_fract_x
 _atom_site_fract_y
 _atom_site_fract_z
 _atom_site_occupancy
  Li  Li0  2  0.42549096  0.00000000  0.60257071  1
  V  V1  4  0.17048982  0.24847906  0.28500420  1
  V  V2  2  0.41484041  0.00000000  0.97982246  1
  Fe  Fe3  2  0.41467470  0.50000000  0.97224253  1
  O  O4  4  0.41415163  0.21394599  0.82297061  1
  O  O5  4  0.41970822  0.26479787  0.21656681  1
  O  O6  2  0.14165905  0.50000000  0.44257949  1
  O  O7  2  0.15232290  0.50000000  0.07457961  1
  O  O8  2  0.18136958  0.00000000  0.07342057  1
  O  O9  2  0.20591308  0.00000000  0.44135611  1
