# generated using pymatgen
data_LiVZnSi2O7
_symmetry_space_group_name_H-M   P1
_cell_length_a   5.43744341
_cell_length_b   5.47384809
_cell_length_c   5.63594383
_cell_angle_alpha   111.67835230
_cell_angle_beta   92.97299365
_cell_angle_gamma   108.53476119
_symmetry_Int_Tables_number   1
_chemical_formula_structural   LiVZnSi2O7
_chemical_formula_sum   'Li1 V1 Zn1 Si2 O7'
_cell_volume   145.04312554
_cell_formula_units_Z   1
loop_
 _symmetry_equiv_pos_site_id
 _symmetry_equiv_pos_as_xyz
  1  'x, y, z'
loop_
 _atom_site_type_symbol
 _atom_site_label
 _atom_site_symmetry_multiplicity
 _atom_site_fract_x
 _atom_site_fract_y
 _atom_site_fract_z
 _atom_site_occupancy
  Li  Li0  1  0.89519320  0.52491897  0.24122876  1
  V  V1  1  0.87936344  0.00723438  0.18086221  1
  Zn  Zn2  1  0.23448913  0.50720478  0.84593975  1
  Si  Si3  1  0.38357728  0.10302987  0.39060206  1
  Si  Si4  1  0.69159324  0.93944966  0.69229362  1
  O  O5  1  0.17017446  0.81777315  0.14287945  1
  O  O6  1  0.20542446  0.30628453  0.45900366  1
  O  O7  1  0.43875197  0.03718327  0.64936000  1
  O  O8  1  0.61623935  0.73107787  0.85162062  1
  O  O9  1  0.66341622  0.23209610  0.31405865  1
  O  O10  1  0.76273451  0.80393207  0.41105762  1
  O  O11  1  0.94679024  0.20719381  0.91357293  1
