# generated using pymatgen
data_LiYb2Re2C3
_symmetry_space_group_name_H-M   P1
_cell_length_a   4.71733211
_cell_length_b   5.23201169
_cell_length_c   5.80414636
_cell_angle_alpha   63.60200133
_cell_angle_beta   84.47262102
_cell_angle_gamma   73.34119507
_symmetry_Int_Tables_number   1
_chemical_formula_structural   LiYb2Re2C3
_chemical_formula_sum   'Li1 Yb2 Re2 C3'
_cell_volume   122.84907416
_cell_formula_units_Z   1
loop_
 _symmetry_equiv_pos_site_id
 _symmetry_equiv_pos_as_xyz
  1  'x, y, z'
loop_
 _atom_site_type_symbol
 _atom_site_label
 _atom_site_symmetry_multiplicity
 _atom_site_fract_x
 _atom_site_fract_y
 _atom_site_fract_z
 _atom_site_occupancy
  Li  Li0  1  0.11795056  0.30430158  0.61275615  1
  Yb  Yb1  1  0.48220597  0.72243155  0.49260716  1
  Yb  Yb2  1  0.89083584  0.21626775  0.19491155  1
  Re  Re3  1  0.22958843  0.68233493  0.97565025  1
  Re  Re4  1  0.63566665  0.93848812  0.93554745  1
  C  C5  1  0.41587703  0.30136039  0.96015379  1
  C  C6  1  0.93505413  0.67737806  0.24081738  1
  C  C7  1  0.95467969  0.92867902  0.66960227  1
