# generated using pymatgen
data_LiYbPr4MgAlC8
_symmetry_space_group_name_H-M   P1
_cell_length_a   6.31570707
_cell_length_b   6.88787271
_cell_length_c   7.26825269
_cell_angle_alpha   116.30306425
_cell_angle_beta   100.46355466
_cell_angle_gamma   90.67590876
_symmetry_Int_Tables_number   1
_chemical_formula_structural   LiYbPr4MgAlC8
_chemical_formula_sum   'Li1 Yb1 Pr4 Mg1 Al1 C8'
_cell_volume   277.20079881
_cell_formula_units_Z   1
loop_
 _symmetry_equiv_pos_site_id
 _symmetry_equiv_pos_as_xyz
  1  'x, y, z'
loop_
 _atom_site_type_symbol
 _atom_site_label
 _atom_site_symmetry_multiplicity
 _atom_site_fract_x
 _atom_site_fract_y
 _atom_site_fract_z
 _atom_site_occupancy
  Li  Li0  1  0.84964144  0.35628155  0.88592226  1
  Yb  Yb1  1  0.46929345  0.46541160  0.59579778  1
  Pr  Pr2  1  0.45414886  0.93420922  0.55628900  1
  Pr  Pr3  1  0.45533365  0.44776371  0.08734708  1
  Pr  Pr4  1  0.93946040  0.31386457  0.34263248  1
  Pr  Pr5  1  0.97539053  0.81910558  0.80121351  1
  Mg  Mg6  1  0.92363884  0.75520383  0.28729558  1
  Al  Al7  1  0.57718724  0.91995923  0.02401950  1
  C  C8  1  0.11229083  0.18018920  0.72474398  1
  C  C9  1  0.12063171  0.37119680  0.73721850  1
  C  C10  1  0.16721383  0.97494114  0.24311222  1
  C  C11  1  0.19703131  0.61764997  0.42824881  1
  C  C12  1  0.34026464  0.99384121  0.18248406  1
  C  C13  1  0.68829793  0.13734713  0.95542934  1
  C  C14  1  0.69037179  0.64313081  0.96458097  1
  C  C15  1  0.70831148  0.63280229  0.46106283  1
