# generated using pymatgen
data_LiZnGeAs
_symmetry_space_group_name_H-M   P1
_cell_length_a   3.94207854
_cell_length_b   4.10826484
_cell_length_c   5.00607576
_cell_angle_alpha   77.36195265
_cell_angle_beta   78.02877394
_cell_angle_gamma   80.28824244
_symmetry_Int_Tables_number   1
_chemical_formula_structural   LiZnGeAs
_chemical_formula_sum   'Li1 Zn1 Ge1 As1'
_cell_volume   76.74069994
_cell_formula_units_Z   1
loop_
 _symmetry_equiv_pos_site_id
 _symmetry_equiv_pos_as_xyz
  1  'x, y, z'
loop_
 _atom_site_type_symbol
 _atom_site_label
 _atom_site_symmetry_multiplicity
 _atom_site_fract_x
 _atom_site_fract_y
 _atom_site_fract_z
 _atom_site_occupancy
  Li  Li0  1  0.42947636  0.22016833  0.64890700  1
  Zn  Zn1  1  0.03536149  0.81424308  0.38701847  1
  Ge  Ge2  1  0.90336122  0.70552011  0.92995019  1
  As  As3  1  0.45481614  0.28503489  0.13156790  1
