# generated using pymatgen
data_LiZrTiCdNiBiSbN
_symmetry_space_group_name_H-M   Cm
_cell_length_a   11.32100019
_cell_length_b   3.89671245
_cell_length_c   6.79650062
_cell_angle_alpha   90.00000000
_cell_angle_beta   92.91414383
_cell_angle_gamma   90.00000000
_symmetry_Int_Tables_number   8
_chemical_formula_structural   LiZrTiCdNiBiSbN
_chemical_formula_sum   'Li2 Zr2 Ti2 Cd2 Ni2 Bi2 Sb2 N2'
_cell_volume   299.43774345
_cell_formula_units_Z   2
loop_
 _symmetry_equiv_pos_site_id
 _symmetry_equiv_pos_as_xyz
  1  'x, y, z'
  2  'x, -y, z'
  3  'x+1/2, y+1/2, z'
  4  'x+1/2, -y+1/2, z'
loop_
 _atom_site_type_symbol
 _atom_site_label
 _atom_site_symmetry_multiplicity
 _atom_site_fract_x
 _atom_site_fract_y
 _atom_site_fract_z
 _atom_site_occupancy
  Li  Li0  2  0.41367634  0.50000000  0.21946771  1
  Zr  Zr1  2  0.35949652  0.50000000  0.76186830  1
  Ti  Ti2  2  0.05018782  0.50000000  0.99451675  1
  Cd  Cd3  2  0.25011677  0.00000000  0.44364684  1
  Ni  Ni4  2  0.11793303  0.00000000  0.75051823  1
  Bi  Bi5  2  0.02842137  0.50000000  0.50569987  1
  Sb  Sb6  2  0.26836052  0.00000000  0.03563316  1
  N  N7  2  0.00434192  0.00000000  0.95902877  1
