# generated using pymatgen
data_Lu2CuGe2
_symmetry_space_group_name_H-M   Cm
_cell_length_a   14.05298677
_cell_length_b   4.11008852
_cell_length_c   3.38837668
_cell_angle_alpha   90.00000000
_cell_angle_beta   93.03535142
_cell_angle_gamma   90.00000000
_symmetry_Int_Tables_number   8
_chemical_formula_structural   Lu2CuGe2
_chemical_formula_sum   'Lu4 Cu2 Ge4'
_cell_volume   195.43474530
_cell_formula_units_Z   2
loop_
 _symmetry_equiv_pos_site_id
 _symmetry_equiv_pos_as_xyz
  1  'x, y, z'
  2  'x, -y, z'
  3  'x+1/2, y+1/2, z'
  4  'x+1/2, -y+1/2, z'
loop_
 _atom_site_type_symbol
 _atom_site_label
 _atom_site_symmetry_multiplicity
 _atom_site_fract_x
 _atom_site_fract_y
 _atom_site_fract_z
 _atom_site_occupancy
  Lu  Lu0  2  0.05896419  0.00000000  0.03473148  1
  Lu  Lu1  2  0.32157956  0.50000000  0.10557919  1
  Cu  Cu2  2  0.24052055  0.00000000  0.58307972  1
  Ge  Ge3  2  0.14633919  0.50000000  0.55653309  1
  Ge  Ge4  2  0.42643112  0.00000000  0.61773021  1
