# generated using pymatgen
data_Lu3TiIn4Ga2CuOsAu4
_symmetry_space_group_name_H-M   P1
_cell_length_a   5.36378575
_cell_length_b   7.21130432
_cell_length_c   8.35361835
_cell_angle_alpha   89.24370467
_cell_angle_beta   86.90451518
_cell_angle_gamma   84.81511213
_symmetry_Int_Tables_number   1
_chemical_formula_structural   Lu3TiIn4Ga2CuOsAu4
_chemical_formula_sum   'Lu3 Ti1 In4 Ga2 Cu1 Os1 Au4'
_cell_volume   321.31417594
_cell_formula_units_Z   1
loop_
 _symmetry_equiv_pos_site_id
 _symmetry_equiv_pos_as_xyz
  1  'x, y, z'
loop_
 _atom_site_type_symbol
 _atom_site_label
 _atom_site_symmetry_multiplicity
 _atom_site_fract_x
 _atom_site_fract_y
 _atom_site_fract_z
 _atom_site_occupancy
  Lu  Lu0  1  0.12209999  0.79415204  0.67689601  1
  Lu  Lu1  1  0.12918728  0.28755294  0.80664156  1
  Lu  Lu2  1  0.63645087  0.61595995  0.17964914  1
  Ti  Ti3  1  0.59374368  0.05953813  0.26551066  1
  In  In4  1  0.09698660  0.27930775  0.20433498  1
  In  In5  1  0.09993427  0.83016962  0.30997710  1
  In  In6  1  0.63133058  0.61484011  0.78352227  1
  In  In7  1  0.69719468  0.11846620  0.63132213  1
  Ga  Ga8  1  0.36780111  0.95195031  0.98999092  1
  Ga  Ga9  1  0.86774087  0.94250827  0.98537583  1
  Cu  Cu10  1  0.21283214  0.12212648  0.49641198  1
  Os  Os11  1  0.57130470  0.81546747  0.47165765  1
  Au  Au12  1  0.15485891  0.60658993  0.00704338  1
  Au  Au13  1  0.42182021  0.43965790  0.48088811  1
  Au  Au14  1  0.61725810  0.28254887  0.96937598  1
  Au  Au15  1  0.91636870  0.48083752  0.49352077  1
