# generated using pymatgen
data_Mg2Br3F2
_symmetry_space_group_name_H-M   P1
_cell_length_a   5.77500687
_cell_length_b   6.04286295
_cell_length_c   6.49206826
_cell_angle_alpha   117.61320001
_cell_angle_beta   114.61100305
_cell_angle_gamma   90.36223386
_symmetry_Int_Tables_number   1
_chemical_formula_structural   Mg2Br3F2
_chemical_formula_sum   'Mg2 Br3 F2'
_cell_volume   176.83846893
_cell_formula_units_Z   1
loop_
 _symmetry_equiv_pos_site_id
 _symmetry_equiv_pos_as_xyz
  1  'x, y, z'
loop_
 _atom_site_type_symbol
 _atom_site_label
 _atom_site_symmetry_multiplicity
 _atom_site_fract_x
 _atom_site_fract_y
 _atom_site_fract_z
 _atom_site_occupancy
  Mg  Mg0  1  0.14898233  0.78983340  0.17672593  1
  Mg  Mg1  1  0.84163098  0.19048897  0.58339345  1
  Br  Br2  1  0.31613285  0.34311809  0.04047642  1
  Br  Br3  1  0.81038252  0.33997976  0.03560533  1
  Br  Br4  1  0.89691181  0.66313586  0.69709780  1
  F  F5  1  0.49117352  0.99753224  0.36400122  1
  F  F6  1  0.99988049  0.99757510  0.38102227  1
