# generated using pymatgen
data_Mg2TlVSn2
_symmetry_space_group_name_H-M   P1
_cell_length_a   5.39376092
_cell_length_b   5.56514418
_cell_length_c   5.74866712
_cell_angle_alpha   72.82473834
_cell_angle_beta   64.92329747
_cell_angle_gamma   64.74741847
_symmetry_Int_Tables_number   1
_chemical_formula_structural   Mg2TlVSn2
_chemical_formula_sum   'Mg2 Tl1 V1 Sn2'
_cell_volume   139.96970274
_cell_formula_units_Z   1
loop_
 _symmetry_equiv_pos_site_id
 _symmetry_equiv_pos_as_xyz
  1  'x, y, z'
loop_
 _atom_site_type_symbol
 _atom_site_label
 _atom_site_symmetry_multiplicity
 _atom_site_fract_x
 _atom_site_fract_y
 _atom_site_fract_z
 _atom_site_occupancy
  Mg  Mg0  1  0.00262277  0.30503154  0.42195501  1
  Mg  Mg1  1  0.20086373  0.61300781  0.72382063  1
  Tl  Tl2  1  0.51627616  0.00034168  0.66470219  1
  V  V3  1  0.61503597  0.85272737  0.17089277  1
  Sn  Sn4  1  0.11760395  0.81528770  0.20377644  1
  Sn  Sn5  1  0.70986367  0.35932742  0.02044305  1
