# generated using pymatgen
data_Mg2Zr7AlZnSi2MoPt2
_symmetry_space_group_name_H-M   P1
_cell_length_a   5.34150551
_cell_length_b   7.66837323
_cell_length_c   7.77837212
_cell_angle_alpha   70.39423863
_cell_angle_beta   87.60565234
_cell_angle_gamma   87.32667393
_symmetry_Int_Tables_number   1
_chemical_formula_structural   Mg2Zr7AlZnSi2MoPt2
_chemical_formula_sum   'Mg2 Zr7 Al1 Zn1 Si2 Mo1 Pt2'
_cell_volume   299.69335513
_cell_formula_units_Z   1
loop_
 _symmetry_equiv_pos_site_id
 _symmetry_equiv_pos_as_xyz
  1  'x, y, z'
loop_
 _atom_site_type_symbol
 _atom_site_label
 _atom_site_symmetry_multiplicity
 _atom_site_fract_x
 _atom_site_fract_y
 _atom_site_fract_z
 _atom_site_occupancy
  Mg  Mg0  1  0.41034303  0.34561305  0.00763026  1
  Mg  Mg1  1  0.67336254  0.52419407  0.19692496  1
  Zr  Zr2  1  0.37100436  0.10888661  0.78288571  1
  Zr  Zr3  1  0.42548435  0.54562210  0.56991354  1
  Zr  Zr4  1  0.42913903  0.89326089  0.21842348  1
  Zr  Zr5  1  0.92595609  0.28006944  0.53624828  1
  Zr  Zr6  1  0.93571098  0.85203509  0.94939116  1
  Zr  Zr7  1  0.93738323  0.54813726  0.80180197  1
  Zr  Zr8  1  0.95408567  0.12902023  0.22664539  1
  Al  Al9  1  0.94052342  0.71183409  0.38782018  1
  Zn  Zn10  1  0.69204198  0.90466154  0.57303120  1
  Si  Si11  1  0.42614687  0.20799212  0.39688537  1
  Si  Si12  1  0.81905954  0.20148519  0.88661389  1
  Mo  Mo13  1  0.18753046  0.90242529  0.56090372  1
  Pt  Pt14  1  0.16890938  0.52182536  0.21063374  1
  Pt  Pt15  1  0.44775649  0.72164414  0.88054237  1
