# generated using pymatgen
data_Mg3In3Ni
_symmetry_space_group_name_H-M   P1
_cell_length_a   3.26188927
_cell_length_b   5.09015533
_cell_length_c   9.56550890
_cell_angle_alpha   98.42725114
_cell_angle_beta   90.31344013
_cell_angle_gamma   108.58451683
_symmetry_Int_Tables_number   1
_chemical_formula_structural   Mg3In3Ni
_chemical_formula_sum   'Mg3 In3 Ni1'
_cell_volume   148.68318023
_cell_formula_units_Z   1
loop_
 _symmetry_equiv_pos_site_id
 _symmetry_equiv_pos_as_xyz
  1  'x, y, z'
loop_
 _atom_site_type_symbol
 _atom_site_label
 _atom_site_symmetry_multiplicity
 _atom_site_fract_x
 _atom_site_fract_y
 _atom_site_fract_z
 _atom_site_occupancy
  Mg  Mg0  1  0.41477911  0.67044567  0.16100763  1
  Mg  Mg1  1  0.47206979  0.80104891  0.79445984  1
  Mg  Mg2  1  0.88139850  0.65561705  0.49521674  1
  In  In3  1  0.12623443  0.09533298  0.01986486  1
  In  In4  1  0.14197192  0.16660623  0.34415789  1
  In  In5  1  0.17623848  0.23254065  0.67866898  1
  Ni  Ni6  1  0.81482104  0.47672379  0.92588176  1
