# generated using pymatgen
data_Mg6Ni2Ag
_symmetry_space_group_name_H-M   P-1
_cell_length_a   4.90774895
_cell_length_b   5.32236580
_cell_length_c   7.19244543
_cell_angle_alpha   88.66003382
_cell_angle_beta   77.61998309
_cell_angle_gamma   63.43635739
_symmetry_Int_Tables_number   2
_chemical_formula_structural   Mg6Ni2Ag
_chemical_formula_sum   'Mg6 Ni2 Ag1'
_cell_volume   163.56707322
_cell_formula_units_Z   1
loop_
 _symmetry_equiv_pos_site_id
 _symmetry_equiv_pos_as_xyz
  1  'x, y, z'
  2  '-x, -y, -z'
loop_
 _atom_site_type_symbol
 _atom_site_label
 _atom_site_symmetry_multiplicity
 _atom_site_fract_x
 _atom_site_fract_y
 _atom_site_fract_z
 _atom_site_occupancy
  Mg  Mg0  2  0.20054687  0.49357796  0.67135141  1
  Mg  Mg1  2  0.22356688  0.76483667  0.11358993  1
  Mg  Mg2  2  0.49839435  0.88389044  0.71321374  1
  Ni  Ni3  2  0.22467328  0.26789906  0.00587116  1
  Ag  Ag4  1  0.00000000  0.00000000  0.50000000  1
