# generated using pymatgen
data_Mg8BeF
_symmetry_space_group_name_H-M   P1
_cell_length_a   5.67558712
_cell_length_b   5.90568318
_cell_length_c   6.45683922
_cell_angle_alpha   73.01291228
_cell_angle_beta   74.57247188
_cell_angle_gamma   79.89863216
_symmetry_Int_Tables_number   1
_chemical_formula_structural   Mg8BeF
_chemical_formula_sum   'Mg8 Be1 F1'
_cell_volume   198.39857259
_cell_formula_units_Z   1
loop_
 _symmetry_equiv_pos_site_id
 _symmetry_equiv_pos_as_xyz
  1  'x, y, z'
loop_
 _atom_site_type_symbol
 _atom_site_label
 _atom_site_symmetry_multiplicity
 _atom_site_fract_x
 _atom_site_fract_y
 _atom_site_fract_z
 _atom_site_occupancy
  Mg  Mg0  1  0.00121160  0.04497760  0.46931707  1
  Mg  Mg1  1  0.02357238  0.03033392  0.94930008  1
  Mg  Mg2  1  0.11106668  0.56484727  0.31397027  1
  Mg  Mg3  1  0.11163125  0.56264484  0.82221643  1
  Mg  Mg4  1  0.45293618  0.21944367  0.58225496  1
  Mg  Mg5  1  0.46886284  0.20853930  0.06927318  1
  Mg  Mg6  1  0.55911616  0.72551908  0.42073644  1
  Mg  Mg7  1  0.56951779  0.72941306  0.92312931  1
  Be  Be8  1  0.78929299  0.39504527  0.69497995  1
  F  F9  1  0.67886375  0.06923175  0.33519608  1
