# generated using pymatgen
data_MgAgBrO2
_symmetry_space_group_name_H-M   P2/m
_cell_length_a   4.05762518
_cell_length_b   3.46382771
_cell_length_c   5.70636420
_cell_angle_alpha   90.00000000
_cell_angle_beta   100.12168646
_cell_angle_gamma   90.00000000
_symmetry_Int_Tables_number   10
_chemical_formula_structural   MgAgBrO2
_chemical_formula_sum   'Mg1 Ag1 Br1 O2'
_cell_volume   78.95424881
_cell_formula_units_Z   1
loop_
 _symmetry_equiv_pos_site_id
 _symmetry_equiv_pos_as_xyz
  1  'x, y, z'
  2  '-x, -y, -z'
  3  '-x, y, -z'
  4  'x, -y, z'
loop_
 _atom_site_type_symbol
 _atom_site_label
 _atom_site_symmetry_multiplicity
 _atom_site_fract_x
 _atom_site_fract_y
 _atom_site_fract_z
 _atom_site_occupancy
  Mg  Mg0  1  0.00000000  0.50000000  0.00000000  1
  Ag  Ag1  1  0.50000000  0.00000000  0.50000000  1
  Br  Br2  1  0.00000000  0.50000000  0.50000000  1
  O  O3  2  0.33176250  0.00000000  0.04208451  1
