# generated using pymatgen
data_MgScCu2P2S
_symmetry_space_group_name_H-M   P1
_cell_length_a   3.91813523
_cell_length_b   5.40788237
_cell_length_c   6.13033180
_cell_angle_alpha   67.28601306
_cell_angle_beta   84.36149564
_cell_angle_gamma   88.80510004
_symmetry_Int_Tables_number   1
_chemical_formula_structural   MgScCu2P2S
_chemical_formula_sum   'Mg1 Sc1 Cu2 P2 S1'
_cell_volume   119.21995724
_cell_formula_units_Z   1
loop_
 _symmetry_equiv_pos_site_id
 _symmetry_equiv_pos_as_xyz
  1  'x, y, z'
loop_
 _atom_site_type_symbol
 _atom_site_label
 _atom_site_symmetry_multiplicity
 _atom_site_fract_x
 _atom_site_fract_y
 _atom_site_fract_z
 _atom_site_occupancy
  Mg  Mg0  1  0.52307676  0.02557005  0.07229001  1
  Sc  Sc1  1  0.98508871  0.41729433  0.29227612  1
  Cu  Cu2  1  0.21818223  0.85420232  0.70099383  1
  Cu  Cu3  1  0.88968890  0.44670807  0.73793662  1
  P  P4  1  0.40346325  0.28210215  0.63371613  1
  P  P5  1  0.54254577  0.58632002  0.98688070  1
  S  S6  1  0.99364616  0.91372272  0.34483884  1
