# generated using pymatgen
data_MgZr3TiNbGaNi2
_symmetry_space_group_name_H-M   P1
_cell_length_a   5.15950512
_cell_length_b   5.49326962
_cell_length_c   6.63079190
_cell_angle_alpha   82.29243396
_cell_angle_beta   73.84515322
_cell_angle_gamma   62.50128788
_symmetry_Int_Tables_number   1
_chemical_formula_structural   MgZr3TiNbGaNi2
_chemical_formula_sum   'Mg1 Zr3 Ti1 Nb1 Ga1 Ni2'
_cell_volume   160.11506057
_cell_formula_units_Z   1
loop_
 _symmetry_equiv_pos_site_id
 _symmetry_equiv_pos_as_xyz
  1  'x, y, z'
loop_
 _atom_site_type_symbol
 _atom_site_label
 _atom_site_symmetry_multiplicity
 _atom_site_fract_x
 _atom_site_fract_y
 _atom_site_fract_z
 _atom_site_occupancy
  Mg  Mg0  1  0.07707056  0.97704741  0.13731631  1
  Zr  Zr1  1  0.20128616  0.30163194  0.76273662  1
  Zr  Zr2  1  0.36186419  0.31180908  0.26409231  1
  Zr  Zr3  1  0.74049366  0.67273129  0.10413844  1
  Ti  Ti4  1  0.75736684  0.81388874  0.55648278  1
  Nb  Nb5  1  0.26561373  0.82313466  0.52380911  1
  Ga  Ga6  1  0.77644419  0.32367649  0.49612660  1
  Ni  Ni7  1  0.48204917  0.57986171  0.85540368  1
  Ni  Ni8  1  0.76977246  0.07699369  0.85802754  1
