# generated using pymatgen
data_Mn2Cu2Bi2SeSO4
_symmetry_space_group_name_H-M   Pm
_cell_length_a   7.37031995
_cell_length_b   3.77187289
_cell_length_c   8.07053650
_cell_angle_alpha   90.00000000
_cell_angle_beta   117.00340503
_cell_angle_gamma   90.00000000
_symmetry_Int_Tables_number   6
_chemical_formula_structural   Mn2Cu2Bi2SeSO4
_chemical_formula_sum   'Mn2 Cu2 Bi2 Se1 S1 O4'
_cell_volume   199.90033777
_cell_formula_units_Z   1
loop_
 _symmetry_equiv_pos_site_id
 _symmetry_equiv_pos_as_xyz
  1  'x, y, z'
  2  'x, -y, z'
loop_
 _atom_site_type_symbol
 _atom_site_label
 _atom_site_symmetry_multiplicity
 _atom_site_fract_x
 _atom_site_fract_y
 _atom_site_fract_z
 _atom_site_occupancy
  Mn  Mn0  1  0.36058907  0.50000000  0.29466709  1
  Mn  Mn1  1  0.72751713  0.50000000  0.00955193  1
  Cu  Cu2  1  0.49906405  0.00000000  0.10653691  1
  Cu  Cu3  1  0.52544517  0.00000000  0.63754419  1
  Bi  Bi4  1  0.02519324  0.00000000  0.89073614  1
  Bi  Bi5  1  0.04489353  0.00000000  0.45215357  1
  Se  Se6  1  0.78237517  0.50000000  0.57422260  1
  S  S7  1  0.29131550  0.50000000  0.67538903  1
  O  O8  1  0.04597286  0.50000000  0.07118383  1
  O  O9  1  0.31884524  0.00000000  0.37780641  1
  O  O10  1  0.52149551  0.50000000  0.12320715  1
  O  O11  1  0.72581615  0.00000000  0.89671677  1
