# generated using pymatgen
data_Mn2Co3NiSn2N
_symmetry_space_group_name_H-M   Cmmm
_cell_length_a   7.39825146
_cell_length_b   7.81262273
_cell_length_c   3.93368549
_cell_angle_alpha   90.00000000
_cell_angle_beta   90.00000000
_cell_angle_gamma   90.00000000
_symmetry_Int_Tables_number   65
_chemical_formula_structural   Mn2Co3NiSn2N
_chemical_formula_sum   'Mn4 Co6 Ni2 Sn4 N2'
_cell_volume   227.36602786
_cell_formula_units_Z   2
loop_
 _symmetry_equiv_pos_site_id
 _symmetry_equiv_pos_as_xyz
  1  'x, y, z'
  2  '-x, -y, -z'
  3  '-x, -y, z'
  4  'x, y, -z'
  5  'x, -y, -z'
  6  '-x, y, z'
  7  '-x, y, -z'
  8  'x, -y, z'
  9  'x+1/2, y+1/2, z'
  10  '-x+1/2, -y+1/2, -z'
  11  '-x+1/2, -y+1/2, z'
  12  'x+1/2, y+1/2, -z'
  13  'x+1/2, -y+1/2, -z'
  14  '-x+1/2, y+1/2, z'
  15  '-x+1/2, y+1/2, -z'
  16  'x+1/2, -y+1/2, z'
loop_
 _atom_site_type_symbol
 _atom_site_label
 _atom_site_symmetry_multiplicity
 _atom_site_fract_x
 _atom_site_fract_y
 _atom_site_fract_z
 _atom_site_occupancy
  Mn  Mn0  4  0.23671347  0.00000000  0.50000000  1
  Co  Co1  4  0.00000000  0.25589695  0.50000000  1
  Co  Co2  2  0.00000000  0.50000000  0.00000000  1
  Ni  Ni3  2  0.00000000  0.00000000  0.00000000  1
  Sn  Sn4  4  0.25000000  0.25000000  0.00000000  1
  N  N5  2  0.00000000  0.50000000  0.50000000  1
