# generated using pymatgen
data_Mn2PbS2O
_symmetry_space_group_name_H-M   P1
_cell_length_a   3.95486533
_cell_length_b   4.43765461
_cell_length_c   6.98277824
_cell_angle_alpha   104.62882640
_cell_angle_beta   90.21904294
_cell_angle_gamma   89.99761611
_symmetry_Int_Tables_number   1
_chemical_formula_structural   Mn2PbS2O
_chemical_formula_sum   'Mn2 Pb1 S2 O1'
_cell_volume   118.57631730
_cell_formula_units_Z   1
loop_
 _symmetry_equiv_pos_site_id
 _symmetry_equiv_pos_as_xyz
  1  'x, y, z'
loop_
 _atom_site_type_symbol
 _atom_site_label
 _atom_site_symmetry_multiplicity
 _atom_site_fract_x
 _atom_site_fract_y
 _atom_site_fract_z
 _atom_site_occupancy
  Mn  Mn0  1  0.15551777  0.37775668  0.06128595  1
  Mn  Mn1  1  0.65600660  0.92333465  0.15953212  1
  Pb  Pb2  1  0.63773464  0.59586906  0.54491337  1
  S  S3  1  0.15408607  0.80869010  0.89267782  1
  S  S4  1  0.16113781  0.04386415  0.42294900  1
  O  O5  1  0.65667952  0.42810288  0.16664883  1
