# generated using pymatgen
data_Mn3O3F4
_symmetry_space_group_name_H-M   P1
_cell_length_a   3.82163770
_cell_length_b   4.23526356
_cell_length_c   8.71208016
_cell_angle_alpha   77.98179974
_cell_angle_beta   77.77809081
_cell_angle_gamma   89.97207027
_symmetry_Int_Tables_number   1
_chemical_formula_structural   Mn3O3F4
_chemical_formula_sum   'Mn3 O3 F4'
_cell_volume   134.65368985
_cell_formula_units_Z   1
loop_
 _symmetry_equiv_pos_site_id
 _symmetry_equiv_pos_as_xyz
  1  'x, y, z'
loop_
 _atom_site_type_symbol
 _atom_site_label
 _atom_site_symmetry_multiplicity
 _atom_site_fract_x
 _atom_site_fract_y
 _atom_site_fract_z
 _atom_site_occupancy
  Mn  Mn0  1  0.02732943  0.39137555  0.01043639  1
  Mn  Mn1  1  0.64661139  0.56458004  0.74341873  1
  Mn  Mn2  1  0.87528617  0.75572881  0.32171602  1
  O  O3  1  0.14027145  0.49939255  0.78193169  1
  O  O4  1  0.54522010  0.41517748  0.97412235  1
  O  O5  1  0.78877959  0.56700876  0.53343352  1
  F  F6  1  0.38117580  0.80014207  0.31491783  1
  F  F7  1  0.64800103  0.99853439  0.74422438  1
  F  F8  1  0.91058241  0.29100408  0.25215446  1
  F  F9  1  0.99508656  0.86369423  0.08354780  1
