# generated using pymatgen
data_Mn9SnO10
_symmetry_space_group_name_H-M   P4
_cell_length_a   7.18013577
_cell_length_b   7.18013577
_cell_length_c   4.65197667
_cell_angle_alpha   90.00000000
_cell_angle_beta   90.00000000
_cell_angle_gamma   90.00000000
_symmetry_Int_Tables_number   75
_chemical_formula_structural   Mn9SnO10
_chemical_formula_sum   'Mn9 Sn1 O10'
_cell_volume   239.82963188
_cell_formula_units_Z   1
loop_
 _symmetry_equiv_pos_site_id
 _symmetry_equiv_pos_as_xyz
  1  'x, y, z'
  2  '-y, x, z'
  3  '-x, -y, z'
  4  'y, -x, z'
loop_
 _atom_site_type_symbol
 _atom_site_label
 _atom_site_symmetry_multiplicity
 _atom_site_fract_x
 _atom_site_fract_y
 _atom_site_fract_z
 _atom_site_occupancy
  Mn  Mn0  4  0.10300028  0.29604915  0.10068760  1
  Mn  Mn1  4  0.19428616  0.60079358  0.59548163  1
  Mn  Mn2  1  0.00000000  0.00000000  0.60217339  1
  Sn  Sn3  1  0.50000000  0.50000000  0.06374731  1
  O  O4  4  0.10565573  0.29969901  0.60482032  1
  O  O5  4  0.18150126  0.60742204  0.10908635  1
  O  O6  1  0.00000000  0.00000000  0.10292353  1
  O  O7  1  0.50000000  0.50000000  0.50683912  1
