# generated using pymatgen
data_MnBe2CuNiAsS2
_symmetry_space_group_name_H-M   P1
_cell_length_a   3.77981530
_cell_length_b   3.78706763
_cell_length_c   9.56948014
_cell_angle_alpha   88.98575921
_cell_angle_beta   89.41152538
_cell_angle_gamma   60.12516917
_symmetry_Int_Tables_number   1
_chemical_formula_structural   MnBe2CuNiAsS2
_chemical_formula_sum   'Mn1 Be2 Cu1 Ni1 As1 S2'
_cell_volume   118.76004355
_cell_formula_units_Z   1
loop_
 _symmetry_equiv_pos_site_id
 _symmetry_equiv_pos_as_xyz
  1  'x, y, z'
loop_
 _atom_site_type_symbol
 _atom_site_label
 _atom_site_symmetry_multiplicity
 _atom_site_fract_x
 _atom_site_fract_y
 _atom_site_fract_z
 _atom_site_occupancy
  Mn  Mn0  1  0.35332826  0.57337778  0.39278210  1
  Be  Be1  1  0.02107588  0.23804399  0.07036900  1
  Be  Be2  1  0.35231602  0.58032479  0.85275338  1
  Cu  Cu3  1  0.69625241  0.95503293  0.70736556  1
  Ni  Ni4  1  0.68804708  0.92157440  0.21022239  1
  As  As5  1  0.68490982  0.89685664  0.96243245  1
  S  S6  1  0.02075581  0.24545712  0.28705642  1
  S  S7  1  0.36264970  0.62039886  0.63562188  1
