# generated using pymatgen
data_MnNb2Co2C
_symmetry_space_group_name_H-M   Cm
_cell_length_a   8.22716182
_cell_length_b   4.24521276
_cell_length_c   5.72264113
_cell_angle_alpha   90.00000000
_cell_angle_beta   130.83978566
_cell_angle_gamma   90.00000000
_symmetry_Int_Tables_number   8
_chemical_formula_structural   MnNb2Co2C
_chemical_formula_sum   'Mn2 Nb4 Co4 C2'
_cell_volume   151.20932114
_cell_formula_units_Z   2
loop_
 _symmetry_equiv_pos_site_id
 _symmetry_equiv_pos_as_xyz
  1  'x, y, z'
  2  'x, -y, z'
  3  'x+1/2, y+1/2, z'
  4  'x+1/2, -y+1/2, z'
loop_
 _atom_site_type_symbol
 _atom_site_label
 _atom_site_symmetry_multiplicity
 _atom_site_fract_x
 _atom_site_fract_y
 _atom_site_fract_z
 _atom_site_occupancy
  Mn  Mn0  2  0.48194977  0.00000000  0.79557114  1
  Nb  Nb1  2  0.08725609  0.00000000  0.54634093  1
  Nb  Nb2  2  0.24772451  0.00000000  0.15200256  1
  Co  Co3  2  0.16247659  0.50000000  0.33011336  1
  Co  Co4  2  0.36893331  0.50000000  0.95167404  1
  C  C5  2  0.08266125  0.50000000  0.58045466  1
