# generated using pymatgen
data_Mo2AuSe6
_symmetry_space_group_name_H-M   C2
_cell_length_a   6.46279868
_cell_length_b   11.17936116
_cell_length_c   5.48223917
_cell_angle_alpha   90.00000000
_cell_angle_beta   90.60002884
_cell_angle_gamma   90.00000000
_symmetry_Int_Tables_number   5
_chemical_formula_structural   Mo2AuSe6
_chemical_formula_sum   'Mo4 Au2 Se12'
_cell_volume   396.06984310
_cell_formula_units_Z   2
loop_
 _symmetry_equiv_pos_site_id
 _symmetry_equiv_pos_as_xyz
  1  'x, y, z'
  2  '-x, y, -z'
  3  'x+1/2, y+1/2, z'
  4  '-x+1/2, y+1/2, -z'
loop_
 _atom_site_type_symbol
 _atom_site_label
 _atom_site_symmetry_multiplicity
 _atom_site_fract_x
 _atom_site_fract_y
 _atom_site_fract_z
 _atom_site_occupancy
  Mo  Mo0  2  0.00000000  0.31983864  0.50000000  1
  Mo  Mo1  2  0.00000000  0.65713410  0.00000000  1
  Au  Au2  2  0.00000000  0.99502635  0.50000000  1
  Se  Se3  4  0.14916020  0.48432496  0.23867902  1
  Se  Se4  4  0.15806736  0.16660526  0.22031997  1
  Se  Se5  4  0.17526458  0.81524520  0.24885734  1
