# generated using pymatgen
data_Na2SrAlCd3Pb
_symmetry_space_group_name_H-M   P1
_cell_length_a   6.51840715
_cell_length_b   6.52686021
_cell_length_c   6.74365354
_cell_angle_alpha   74.26414167
_cell_angle_beta   65.96441010
_cell_angle_gamma   62.61195442
_symmetry_Int_Tables_number   1
_chemical_formula_structural   Na2SrAlCd3Pb
_chemical_formula_sum   'Na2 Sr1 Al1 Cd3 Pb1'
_cell_volume   231.41268943
_cell_formula_units_Z   1
loop_
 _symmetry_equiv_pos_site_id
 _symmetry_equiv_pos_as_xyz
  1  'x, y, z'
loop_
 _atom_site_type_symbol
 _atom_site_label
 _atom_site_symmetry_multiplicity
 _atom_site_fract_x
 _atom_site_fract_y
 _atom_site_fract_z
 _atom_site_occupancy
  Na  Na0  1  0.14122807  0.63186463  0.51615113  1
  Na  Na1  1  0.62694180  0.61197433  0.91866200  1
  Sr  Sr2  1  0.54768279  0.03924014  0.30362362  1
  Al  Al3  1  0.47675574  0.20132427  0.78998707  1
  Cd  Cd4  1  0.12839600  0.04394861  0.12283579  1
  Cd  Cd5  1  0.74069259  0.40955924  0.42646579  1
  Cd  Cd6  1  0.98925641  0.09633397  0.74243757  1
  Pb  Pb7  1  0.09307379  0.59031170  0.04734404  1
