# generated using pymatgen
data_Na3InAg2
_symmetry_space_group_name_H-M   C2/m
_cell_length_a   9.91121539
_cell_length_b   5.87697082
_cell_length_c   6.36643732
_cell_angle_alpha   90.00000000
_cell_angle_beta   125.89784909
_cell_angle_gamma   90.00000000
_symmetry_Int_Tables_number   12
_chemical_formula_structural   Na3InAg2
_chemical_formula_sum   'Na6 In2 Ag4'
_cell_volume   300.39732615
_cell_formula_units_Z   2
loop_
 _symmetry_equiv_pos_site_id
 _symmetry_equiv_pos_as_xyz
  1  'x, y, z'
  2  '-x, -y, -z'
  3  '-x, y, -z'
  4  'x, -y, z'
  5  'x+1/2, y+1/2, z'
  6  '-x+1/2, -y+1/2, -z'
  7  '-x+1/2, y+1/2, -z'
  8  'x+1/2, -y+1/2, z'
loop_
 _atom_site_type_symbol
 _atom_site_label
 _atom_site_symmetry_multiplicity
 _atom_site_fract_x
 _atom_site_fract_y
 _atom_site_fract_z
 _atom_site_occupancy
  Na  Na0  4  0.11187720  0.00000000  0.84130194  1
  Na  Na1  2  0.00000000  0.50000000  0.00000000  1
  In  In2  2  0.00000000  0.50000000  0.50000000  1
  Ag  Ag3  4  0.25000000  0.25000000  0.50000000  1
