# generated using pymatgen
data_NaEr2CdRhS4F
_symmetry_space_group_name_H-M   P1
_cell_length_a   5.59382630
_cell_length_b   6.40709677
_cell_length_c   6.54243395
_cell_angle_alpha   104.11099223
_cell_angle_beta   93.07085941
_cell_angle_gamma   97.63094737
_symmetry_Int_Tables_number   1
_chemical_formula_structural   NaEr2CdRhS4F
_chemical_formula_sum   'Na1 Er2 Cd1 Rh1 S4 F1'
_cell_volume   224.48994289
_cell_formula_units_Z   1
loop_
 _symmetry_equiv_pos_site_id
 _symmetry_equiv_pos_as_xyz
  1  'x, y, z'
loop_
 _atom_site_type_symbol
 _atom_site_label
 _atom_site_symmetry_multiplicity
 _atom_site_fract_x
 _atom_site_fract_y
 _atom_site_fract_z
 _atom_site_occupancy
  Na  Na0  1  0.25726264  0.71220160  0.59907602  1
  Er  Er1  1  0.59315476  0.53325061  0.13669882  1
  Er  Er2  1  0.71502934  0.29342255  0.58701766  1
  Cd  Cd3  1  0.15492785  0.98895681  0.09893692  1
  Rh  Rh4  1  0.05659826  0.49899875  0.95183148  1
  S  S5  1  0.32219521  0.23282740  0.83581715  1
  S  S6  1  0.49717103  0.91879802  0.33562832  1
  S  S7  1  0.80626083  0.72148271  0.84039038  1
  S  S8  1  0.96897837  0.35055687  0.25336093  1
  F  F9  1  0.48613804  0.45663457  0.43469655  1
