# generated using pymatgen
data_NaFeAgIrO5
_symmetry_space_group_name_H-M   P1
_cell_length_a   5.04016111
_cell_length_b   5.22634258
_cell_length_c   6.78021561
_cell_angle_alpha   104.42638944
_cell_angle_beta   90.33962867
_cell_angle_gamma   116.02086153
_symmetry_Int_Tables_number   1
_chemical_formula_structural   NaFeAgIrO5
_chemical_formula_sum   'Na1 Fe1 Ag1 Ir1 O5'
_cell_volume   154.06866980
_cell_formula_units_Z   1
loop_
 _symmetry_equiv_pos_site_id
 _symmetry_equiv_pos_as_xyz
  1  'x, y, z'
loop_
 _atom_site_type_symbol
 _atom_site_label
 _atom_site_symmetry_multiplicity
 _atom_site_fract_x
 _atom_site_fract_y
 _atom_site_fract_z
 _atom_site_occupancy
  Na  Na0  1  0.74055838  0.34905014  0.58197045  1
  Fe  Fe1  1  0.37076123  0.58125121  0.38588930  1
  Ag  Ag2  1  0.23689963  0.33863384  0.87490671  1
  Ir  Ir3  1  0.98831689  0.83069739  0.17973662  1
  O  O4  1  0.18720443  0.22855557  0.15453734  1
  O  O5  1  0.24538910  0.46451766  0.61093830  1
  O  O6  1  0.35618762  0.92086977  0.33816941  1
  O  O7  1  0.76824526  0.58494305  0.94507773  1
  O  O8  1  0.79180142  0.66260542  0.38504743  1
