# generated using pymatgen
data_NaICl
_symmetry_space_group_name_H-M   Cm
_cell_length_a   7.30648531
_cell_length_b   5.23122316
_cell_length_c   5.94382778
_cell_angle_alpha   90.00000000
_cell_angle_beta   119.85990009
_cell_angle_gamma   90.00000000
_symmetry_Int_Tables_number   8
_chemical_formula_structural   NaICl
_chemical_formula_sum   'Na2 I2 Cl2'
_cell_volume   197.02439047
_cell_formula_units_Z   2
loop_
 _symmetry_equiv_pos_site_id
 _symmetry_equiv_pos_as_xyz
  1  'x, y, z'
  2  'x, -y, z'
  3  'x+1/2, y+1/2, z'
  4  'x+1/2, -y+1/2, z'
loop_
 _atom_site_type_symbol
 _atom_site_label
 _atom_site_symmetry_multiplicity
 _atom_site_fract_x
 _atom_site_fract_y
 _atom_site_fract_z
 _atom_site_occupancy
  Na  Na0  2  0.08840062  0.00000000  0.13338238  1
  I  I1  2  0.02560213  0.50000000  0.76038438  1
  Cl  Cl2  2  0.01675866  0.50000000  0.25881335  1
