# generated using pymatgen
data_NaLuScPdSe4
_symmetry_space_group_name_H-M   Pmmm
_cell_length_a   5.51384237
_cell_length_b   5.60152043
_cell_length_c   5.60556393
_cell_angle_alpha   90.00000000
_cell_angle_beta   90.00000000
_cell_angle_gamma   90.00000000
_symmetry_Int_Tables_number   47
_chemical_formula_structural   NaLuScPdSe4
_chemical_formula_sum   'Na1 Lu1 Sc1 Pd1 Se4'
_cell_volume   173.13289099
_cell_formula_units_Z   1
loop_
 _symmetry_equiv_pos_site_id
 _symmetry_equiv_pos_as_xyz
  1  'x, y, z'
  2  '-x, -y, -z'
  3  '-x, -y, z'
  4  'x, y, -z'
  5  'x, -y, -z'
  6  '-x, y, z'
  7  '-x, y, -z'
  8  'x, -y, z'
loop_
 _atom_site_type_symbol
 _atom_site_label
 _atom_site_symmetry_multiplicity
 _atom_site_fract_x
 _atom_site_fract_y
 _atom_site_fract_z
 _atom_site_occupancy
  Na  Na0  1  0.50000000  0.00000000  0.50000000  1
  Lu  Lu1  1  0.00000000  0.00000000  0.00000000  1
  Sc  Sc2  1  0.00000000  0.50000000  0.50000000  1
  Pd  Pd3  1  0.50000000  0.50000000  0.00000000  1
  Se  Se4  1  0.00000000  0.00000000  0.50000000  1
  Se  Se5  1  0.00000000  0.50000000  0.00000000  1
  Se  Se6  1  0.50000000  0.00000000  0.00000000  1
  Se  Se7  1  0.50000000  0.50000000  0.50000000  1
