# generated using pymatgen
data_NaO3
_symmetry_space_group_name_H-M   C2
_cell_length_a   5.45896596
_cell_length_b   6.74989652
_cell_length_c   3.89150037
_cell_angle_alpha   90.00000000
_cell_angle_beta   126.87855457
_cell_angle_gamma   90.00000000
_symmetry_Int_Tables_number   5
_chemical_formula_structural   NaO3
_chemical_formula_sum   'Na2 O6'
_cell_volume   114.70050830
_cell_formula_units_Z   2
loop_
 _symmetry_equiv_pos_site_id
 _symmetry_equiv_pos_as_xyz
  1  'x, y, z'
  2  '-x, y, -z'
  3  'x+1/2, y+1/2, z'
  4  '-x+1/2, y+1/2, -z'
loop_
 _atom_site_type_symbol
 _atom_site_label
 _atom_site_symmetry_multiplicity
 _atom_site_fract_x
 _atom_site_fract_y
 _atom_site_fract_z
 _atom_site_occupancy
  Na  Na0  2  0.00000000  0.52714783  0.50000000  1
  O  O1  4  0.20461226  0.84594367  0.85441613  1
  O  O2  2  0.00000000  0.95834754  0.50000000  1
