# generated using pymatgen
data_NaTmBr2
_symmetry_space_group_name_H-M   Imm2
_cell_length_a   3.86275780
_cell_length_b   3.92699632
_cell_length_c   14.30846450
_cell_angle_alpha   90.00000000
_cell_angle_beta   90.00000000
_cell_angle_gamma   90.00000000
_symmetry_Int_Tables_number   44
_chemical_formula_structural   NaTmBr2
_chemical_formula_sum   'Na2 Tm2 Br4'
_cell_volume   217.04560826
_cell_formula_units_Z   2
loop_
 _symmetry_equiv_pos_site_id
 _symmetry_equiv_pos_as_xyz
  1  'x, y, z'
  2  '-x, -y, z'
  3  '-x, y, z'
  4  'x, -y, z'
  5  'x+1/2, y+1/2, z+1/2'
  6  '-x+1/2, -y+1/2, z+1/2'
  7  '-x+1/2, y+1/2, z+1/2'
  8  'x+1/2, -y+1/2, z+1/2'
loop_
 _atom_site_type_symbol
 _atom_site_label
 _atom_site_symmetry_multiplicity
 _atom_site_fract_x
 _atom_site_fract_y
 _atom_site_fract_z
 _atom_site_occupancy
  Na  Na0  2  0.00000000  0.50000000  0.56865015  1
  Tm  Tm1  2  0.00000000  0.00000000  0.81808957  1
  Br  Br2  2  0.00000000  0.00000000  0.39346715  1
  Br  Br3  2  0.00000000  0.50000000  0.16749530  1
