# generated using pymatgen
data_NbNi4Sn2GePPd
_symmetry_space_group_name_H-M   Amm2
_cell_length_a   3.59349024
_cell_length_b   3.61550299
_cell_length_c   22.68012043
_cell_angle_alpha   90.00000000
_cell_angle_beta   90.00000000
_cell_angle_gamma   90.00000000
_symmetry_Int_Tables_number   38
_chemical_formula_structural   NbNi4Sn2GePPd
_chemical_formula_sum   'Nb2 Ni8 Sn4 Ge2 P2 Pd2'
_cell_volume   294.66635514
_cell_formula_units_Z   2
loop_
 _symmetry_equiv_pos_site_id
 _symmetry_equiv_pos_as_xyz
  1  'x, y, z'
  2  '-x, -y, z'
  3  '-x, y, z'
  4  'x, -y, z'
  5  'x, y+1/2, z+1/2'
  6  '-x, -y+1/2, z+1/2'
  7  '-x, y+1/2, z+1/2'
  8  'x, -y+1/2, z+1/2'
loop_
 _atom_site_type_symbol
 _atom_site_label
 _atom_site_symmetry_multiplicity
 _atom_site_fract_x
 _atom_site_fract_y
 _atom_site_fract_z
 _atom_site_occupancy
  Nb  Nb0  2  0.00000000  0.00000000  0.87905481  1
  Ni  Ni1  2  0.00000000  0.00000000  0.12640267  1
  Ni  Ni2  2  0.00000000  0.00000000  0.28725713  1
  Ni  Ni3  2  0.00000000  0.00000000  0.70630140  1
  Ni  Ni4  2  0.50000000  0.00000000  0.78817381  1
  Sn  Sn5  2  0.00000000  0.00000000  0.00897720  1
  Sn  Sn6  2  0.50000000  0.00000000  0.59702121  1
  Ge  Ge7  2  0.50000000  0.00000000  0.20881249  1
  P  P8  2  0.50000000  0.00000000  0.35212500  1
  Pd  Pd9  2  0.50000000  0.00000000  0.45843956  1
