# generated using pymatgen
data_NdAgS2
_symmetry_space_group_name_H-M   Cm
_cell_length_a   5.70389795
_cell_length_b   5.70317753
_cell_length_c   5.61676083
_cell_angle_alpha   90.00000000
_cell_angle_beta   90.07243103
_cell_angle_gamma   90.00000000
_symmetry_Int_Tables_number   8
_chemical_formula_structural   NdAgS2
_chemical_formula_sum   'Nd2 Ag2 S4'
_cell_volume   182.71500843
_cell_formula_units_Z   2
loop_
 _symmetry_equiv_pos_site_id
 _symmetry_equiv_pos_as_xyz
  1  'x, y, z'
  2  'x, -y, -z+591/956'
  3  'x, y, -z+591/956'
  4  'x, -y, z'
  5  'x+1/2, y+1/2, z'
  6  'x+1/2, -y+1/2, -z+591/956'
  7  'x+1/2, y+1/2, -z+591/956'
  8  'x+1/2, -y+1/2, z'
loop_
 _atom_site_type_symbol
 _atom_site_label
 _atom_site_symmetry_multiplicity
 _atom_site_fract_x
 _atom_site_fract_y
 _atom_site_fract_z
 _atom_site_occupancy
  Nd  Nd0  2  0.33954909  0.50000000  0.80909991  1
  Ag  Ag1  2  0.35518244  0.00000000  0.30044621  1
  S  S2  2  0.34080618  0.00000000  0.80544463  1
  S  S3  2  0.35038644  0.50000000  0.30777905  1
