# generated using pymatgen
data_NdFe2Se2O
_symmetry_space_group_name_H-M   Cm
_cell_length_a   13.57388542
_cell_length_b   4.40608890
_cell_length_c   3.86795950
_cell_angle_alpha   90.00000000
_cell_angle_beta   90.28657626
_cell_angle_gamma   90.00000000
_symmetry_Int_Tables_number   8
_chemical_formula_structural   NdFe2Se2O
_chemical_formula_sum   'Nd2 Fe4 Se4 O2'
_cell_volume   231.33104524
_cell_formula_units_Z   2
loop_
 _symmetry_equiv_pos_site_id
 _symmetry_equiv_pos_as_xyz
  1  'x, y, z'
  2  'x, -y, z'
  3  'x+1/2, y+1/2, z'
  4  'x+1/2, -y+1/2, z'
loop_
 _atom_site_type_symbol
 _atom_site_label
 _atom_site_symmetry_multiplicity
 _atom_site_fract_x
 _atom_site_fract_y
 _atom_site_fract_z
 _atom_site_occupancy
  Nd  Nd0  2  0.41558610  0.50000000  0.54451962  1
  Fe  Fe1  2  0.16469520  0.50000000  0.92028803  1
  Fe  Fe2  2  0.28620995  0.00000000  0.05452068  1
  Se  Se3  2  0.15955339  0.00000000  0.53180403  1
  Se  Se4  2  0.48113143  0.00000000  0.05394882  1
  O  O5  2  0.30991952  0.50000000  0.03498889  1
