# generated using pymatgen
data_NdMnTeN
_symmetry_space_group_name_H-M   Pm
_cell_length_a   4.98143583
_cell_length_b   3.80970112
_cell_length_c   5.01937325
_cell_angle_alpha   90.00000000
_cell_angle_beta   108.00050071
_cell_angle_gamma   90.00000000
_symmetry_Int_Tables_number   6
_chemical_formula_structural   NdMnTeN
_chemical_formula_sum   'Nd1 Mn1 Te1 N1'
_cell_volume   90.59412398
_cell_formula_units_Z   1
loop_
 _symmetry_equiv_pos_site_id
 _symmetry_equiv_pos_as_xyz
  1  'x, y, z'
  2  'x, -y, z'
loop_
 _atom_site_type_symbol
 _atom_site_label
 _atom_site_symmetry_multiplicity
 _atom_site_fract_x
 _atom_site_fract_y
 _atom_site_fract_z
 _atom_site_occupancy
  Nd  Nd0  1  0.09427640  0.00000000  0.49804137  1
  Mn  Mn1  1  0.08082157  0.50000000  0.99276059  1
  Te  Te2  1  0.59000914  0.50000000  0.48387642  1
  N  N3  1  0.08082972  0.00000000  0.99408539  1
