# generated using pymatgen
data_NdTmZnAgAs2
_symmetry_space_group_name_H-M   C2
_cell_length_a   6.58140357
_cell_length_b   6.76819751
_cell_length_c   6.60179410
_cell_angle_alpha   90.00000000
_cell_angle_beta   99.13652298
_cell_angle_gamma   90.00000000
_symmetry_Int_Tables_number   5
_chemical_formula_structural   NdTmZnAgAs2
_chemical_formula_sum   'Nd2 Tm2 Zn2 Ag2 As4'
_cell_volume   290.34094364
_cell_formula_units_Z   2
loop_
 _symmetry_equiv_pos_site_id
 _symmetry_equiv_pos_as_xyz
  1  'x, y, z'
  2  '-x, y, -z'
  3  'x+1/2, y+1/2, z'
  4  '-x+1/2, y+1/2, -z'
loop_
 _atom_site_type_symbol
 _atom_site_label
 _atom_site_symmetry_multiplicity
 _atom_site_fract_x
 _atom_site_fract_y
 _atom_site_fract_z
 _atom_site_occupancy
  Nd  Nd0  2  0.00000000  0.67239668  0.50000000  1
  Tm  Tm1  2  0.00000000  0.08958053  0.00000000  1
  Zn  Zn2  2  0.00000000  0.11770295  0.50000000  1
  Ag  Ag3  2  0.00000000  0.60863157  0.00000000  1
  As  As4  4  0.19792877  0.35149995  0.76920005  1
