# generated using pymatgen
data_NiBi2O3
_symmetry_space_group_name_H-M   P1
_cell_length_a   3.41619711
_cell_length_b   3.49618689
_cell_length_c   8.23527636
_cell_angle_alpha   100.84904247
_cell_angle_beta   91.65060303
_cell_angle_gamma   90.26439338
_symmetry_Int_Tables_number   1
_chemical_formula_structural   NiBi2O3
_chemical_formula_sum   'Ni1 Bi2 O3'
_cell_volume   96.55621499
_cell_formula_units_Z   1
loop_
 _symmetry_equiv_pos_site_id
 _symmetry_equiv_pos_as_xyz
  1  'x, y, z'
loop_
 _atom_site_type_symbol
 _atom_site_label
 _atom_site_symmetry_multiplicity
 _atom_site_fract_x
 _atom_site_fract_y
 _atom_site_fract_z
 _atom_site_occupancy
  Ni  Ni0  1  0.48270698  0.33021231  0.05615203  1
  Bi  Bi1  1  0.00024372  0.02286843  0.35946902  1
  Bi  Bi2  1  0.96384573  0.76786746  0.75442764  1
  O  O3  1  0.45795698  0.29541543  0.81228240  1
  O  O4  1  0.50484747  0.51817337  0.29979246  1
  O  O5  1  0.98078264  0.96826464  0.05197207  1
