# generated using pymatgen
data_NiP2Ir
_symmetry_space_group_name_H-M   Cm
_cell_length_a   5.81942139
_cell_length_b   4.32344179
_cell_length_c   4.63199975
_cell_angle_alpha   90.00000000
_cell_angle_beta   98.57817123
_cell_angle_gamma   90.00000000
_symmetry_Int_Tables_number   8
_chemical_formula_structural   NiP2Ir
_chemical_formula_sum   'Ni2 P4 Ir2'
_cell_volume   115.23707871
_cell_formula_units_Z   2
loop_
 _symmetry_equiv_pos_site_id
 _symmetry_equiv_pos_as_xyz
  1  'x, y, z'
  2  'x, -y, z'
  3  'x+1/2, y+1/2, z'
  4  'x+1/2, -y+1/2, z'
loop_
 _atom_site_type_symbol
 _atom_site_label
 _atom_site_symmetry_multiplicity
 _atom_site_fract_x
 _atom_site_fract_y
 _atom_site_fract_z
 _atom_site_occupancy
  Ni  Ni0  2  0.10646430  0.00000000  0.45151076  1
  P  P1  2  0.44708642  0.50000000  0.96409007  1
  P  P2  2  0.46319578  0.00000000  0.32466597  1
  Ir  Ir3  2  0.04715453  0.50000000  0.82492818  1
