# generated using pymatgen
data_O2
_symmetry_space_group_name_H-M   P-1
_cell_length_a   2.39931386
_cell_length_b   2.97308733
_cell_length_c   4.15904769
_cell_angle_alpha   104.34218408
_cell_angle_beta   105.32639897
_cell_angle_gamma   96.38116379
_symmetry_Int_Tables_number   2
_chemical_formula_structural   O2
_chemical_formula_sum   O2
_cell_volume   27.22141522
_cell_formula_units_Z   1
loop_
 _symmetry_equiv_pos_site_id
 _symmetry_equiv_pos_as_xyz
  1  'x, y, z'
  2  '-x, -y, -z'
loop_
 _atom_site_type_symbol
 _atom_site_label
 _atom_site_symmetry_multiplicity
 _atom_site_fract_x
 _atom_site_fract_y
 _atom_site_fract_z
 _atom_site_occupancy
  O  O0  2  0.03957954  0.89615236  0.61279013  1
