# generated using pymatgen
data_PaO3
_symmetry_space_group_name_H-M   C2/c
_cell_length_a   7.02250467
_cell_length_b   5.29141568
_cell_length_c   6.08686630
_cell_angle_alpha   90.00000000
_cell_angle_beta   108.00452732
_cell_angle_gamma   90.00000000
_symmetry_Int_Tables_number   15
_chemical_formula_structural   PaO3
_chemical_formula_sum   'Pa4 O12'
_cell_volume   215.10616283
_cell_formula_units_Z   4
loop_
 _symmetry_equiv_pos_site_id
 _symmetry_equiv_pos_as_xyz
  1  'x, y, z'
  2  '-x, -y, -z'
  3  '-x, y, -z+1/2'
  4  'x, -y, z+1/2'
  5  'x+1/2, y+1/2, z'
  6  '-x+1/2, -y+1/2, -z'
  7  '-x+1/2, y+1/2, -z+1/2'
  8  'x+1/2, -y+1/2, z+1/2'
loop_
 _atom_site_type_symbol
 _atom_site_label
 _atom_site_symmetry_multiplicity
 _atom_site_fract_x
 _atom_site_fract_y
 _atom_site_fract_z
 _atom_site_occupancy
  Pa  Pa0  4  0.00000000  0.29178259  0.25000000  1
  O  O1  8  0.17354829  0.41976041  0.62838792  1
  O  O2  4  0.00000000  0.00000000  0.00000000  1
