# generated using pymatgen
data_Pm2V5CrFe2Sb3As
_symmetry_space_group_name_H-M   P1
_cell_length_a   6.81498129
_cell_length_b   6.91413791
_cell_length_c   7.30170655
_cell_angle_alpha   92.00066620
_cell_angle_beta   116.02505269
_cell_angle_gamma   117.75771058
_symmetry_Int_Tables_number   1
_chemical_formula_structural   Pm2V5CrFe2Sb3As
_chemical_formula_sum   'Pm2 V5 Cr1 Fe2 Sb3 As1'
_cell_volume   260.91290169
_cell_formula_units_Z   1
loop_
 _symmetry_equiv_pos_site_id
 _symmetry_equiv_pos_as_xyz
  1  'x, y, z'
loop_
 _atom_site_type_symbol
 _atom_site_label
 _atom_site_symmetry_multiplicity
 _atom_site_fract_x
 _atom_site_fract_y
 _atom_site_fract_z
 _atom_site_occupancy
  Pm  Pm0  1  0.28712916  0.66179217  0.71897066  1
  Pm  Pm1  1  0.71587484  0.18140586  0.63822734  1
  V  V2  1  0.26356900  0.91585352  0.05342861  1
  V  V3  1  0.34939204  0.32145275  0.42410996  1
  V  V4  1  0.63222856  0.81861682  0.22400658  1
  V  V5  1  0.70480971  0.52413189  0.93194006  1
  V  V6  1  0.87106645  0.01831948  0.03442255  1
  Cr  Cr7  1  0.21117749  0.13271606  0.65220649  1
  Fe  Fe8  1  0.07332874  0.50233438  0.12053101  1
  Fe  Fe9  1  0.58960058  0.14829770  0.98894339  1
  Sb  Sb10  1  0.09472915  0.83689404  0.32641750  1
  Sb  Sb11  1  0.33059015  0.34674966  0.03851662  1
  Sb  Sb12  1  0.79139952  0.75052917  0.65356365  1
  As  As13  1  0.92420712  0.25843032  0.35054722  1
