# generated using pymatgen
data_Pm2Zn3Ga2Ge3Rh
_symmetry_space_group_name_H-M   P1
_cell_length_a   5.58014752
_cell_length_b   6.70217402
_cell_length_c   6.76476851
_cell_angle_alpha   74.29160893
_cell_angle_beta   68.18768418
_cell_angle_gamma   67.73246006
_symmetry_Int_Tables_number   1
_chemical_formula_structural   Pm2Zn3Ga2Ge3Rh
_chemical_formula_sum   'Pm2 Zn3 Ga2 Ge3 Rh1'
_cell_volume   214.86639923
_cell_formula_units_Z   1
loop_
 _symmetry_equiv_pos_site_id
 _symmetry_equiv_pos_as_xyz
  1  'x, y, z'
loop_
 _atom_site_type_symbol
 _atom_site_label
 _atom_site_symmetry_multiplicity
 _atom_site_fract_x
 _atom_site_fract_y
 _atom_site_fract_z
 _atom_site_occupancy
  Pm  Pm0  1  0.02743199  0.74469113  0.61423525  1
  Pm  Pm1  1  0.03463206  0.25434813  0.09904526  1
  Zn  Zn2  1  0.01064596  0.75259510  0.10900875  1
  Zn  Zn3  1  0.48452818  0.01341887  0.37364749  1
  Zn  Zn4  1  0.51409583  0.24385185  0.59978499  1
  Ga  Ga5  1  0.02309446  0.25381968  0.60340405  1
  Ga  Ga6  1  0.40797205  0.47602469  0.23005537  1
  Ge  Ge7  1  0.41108095  0.87642077  0.84587733  1
  Ge  Ge8  1  0.65622720  0.60007557  0.41696705  1
  Ge  Ge9  1  0.66077437  0.07113588  0.95926382  1
  Rh  Rh10  1  0.55224839  0.48203707  0.83076722  1
