# generated using pymatgen
data_Pm3Cr3Pt2
_symmetry_space_group_name_H-M   P1
_cell_length_a   5.64912581
_cell_length_b   5.84119821
_cell_length_c   6.07026140
_cell_angle_alpha   73.16220931
_cell_angle_beta   73.72870819
_cell_angle_gamma   63.13180492
_symmetry_Int_Tables_number   1
_chemical_formula_structural   Pm3Cr3Pt2
_chemical_formula_sum   'Pm3 Cr3 Pt2'
_cell_volume   168.38685301
_cell_formula_units_Z   1
loop_
 _symmetry_equiv_pos_site_id
 _symmetry_equiv_pos_as_xyz
  1  'x, y, z'
loop_
 _atom_site_type_symbol
 _atom_site_label
 _atom_site_symmetry_multiplicity
 _atom_site_fract_x
 _atom_site_fract_y
 _atom_site_fract_z
 _atom_site_occupancy
  Pm  Pm0  1  0.15287909  0.00466643  0.88986233  1
  Pm  Pm1  1  0.55122436  0.39963648  0.69041358  1
  Pm  Pm2  1  0.56279865  0.96321979  0.29157340  1
  Cr  Cr3  1  0.06070001  0.47014443  0.13488529  1
  Cr  Cr4  1  0.12261021  0.56918480  0.40518952  1
  Cr  Cr5  1  0.57136118  0.47779740  0.15738786  1
  Pt  Pt6  1  0.78960861  0.75140180  0.79791977  1
  Pt  Pt7  1  0.99837163  0.06043609  0.40473325  1
