# generated using pymatgen
data_PmHoCd2Hg
_symmetry_space_group_name_H-M   Amm2
_cell_length_a   3.46810226
_cell_length_b   4.81871843
_cell_length_c   15.43783305
_cell_angle_alpha   90.00000000
_cell_angle_beta   90.00000000
_cell_angle_gamma   90.00000000
_symmetry_Int_Tables_number   38
_chemical_formula_structural   PmHoCd2Hg
_chemical_formula_sum   'Pm2 Ho2 Cd4 Hg2'
_cell_volume   257.99410588
_cell_formula_units_Z   2
loop_
 _symmetry_equiv_pos_site_id
 _symmetry_equiv_pos_as_xyz
  1  'x, y, z'
  2  '-x, -y, z'
  3  '-x, y, z'
  4  'x, -y, z'
  5  'x, y+1/2, z+1/2'
  6  '-x, -y+1/2, z+1/2'
  7  '-x, y+1/2, z+1/2'
  8  'x, -y+1/2, z+1/2'
loop_
 _atom_site_type_symbol
 _atom_site_label
 _atom_site_symmetry_multiplicity
 _atom_site_fract_x
 _atom_site_fract_y
 _atom_site_fract_z
 _atom_site_occupancy
  Pm  Pm0  2  0.00000000  0.00000000  0.30541278  1
  Ho  Ho1  2  0.00000000  0.00000000  0.07289699  1
  Cd  Cd2  2  0.50000000  0.00000000  0.69130064  1
  Cd  Cd3  2  0.50000000  0.00000000  0.89214679  1
  Hg  Hg4  2  0.50000000  0.00000000  0.49754642  1
