# generated using pymatgen
data_PmLu3Sb4
_symmetry_space_group_name_H-M   C2
_cell_length_a   5.72480606
_cell_length_b   14.61850263
_cell_length_c   5.69848277
_cell_angle_alpha   90.00000000
_cell_angle_beta   90.03273275
_cell_angle_gamma   90.00000000
_symmetry_Int_Tables_number   5
_chemical_formula_structural   PmLu3Sb4
_chemical_formula_sum   'Pm2 Lu6 Sb8'
_cell_volume   476.89507473
_cell_formula_units_Z   2
loop_
 _symmetry_equiv_pos_site_id
 _symmetry_equiv_pos_as_xyz
  1  'x, y, z'
  2  '-x, y, -z'
  3  'x+1/2, y+1/2, z'
  4  '-x+1/2, y+1/2, -z'
loop_
 _atom_site_type_symbol
 _atom_site_label
 _atom_site_symmetry_multiplicity
 _atom_site_fract_x
 _atom_site_fract_y
 _atom_site_fract_z
 _atom_site_occupancy
  Pm  Pm0  2  0.00000000  0.33344120  0.00000000  1
  Lu  Lu1  4  0.24922182  0.08124204  0.24964534  1
  Lu  Lu2  2  0.00000000  0.83048407  0.50000000  1
  Sb  Sb3  4  0.24568411  0.99784450  0.74313387  1
  Sb  Sb4  2  0.00000000  0.24255809  0.50000000  1
  Sb  Sb5  2  0.00000000  0.74108958  0.00000000  1
