# generated using pymatgen
data_PmSmMg2AlN
_symmetry_space_group_name_H-M   Pm
_cell_length_a   5.48986301
_cell_length_b   3.23197891
_cell_length_c   7.53915556
_cell_angle_alpha   90.00000000
_cell_angle_beta   110.76212876
_cell_angle_gamma   90.00000000
_symmetry_Int_Tables_number   6
_chemical_formula_structural   PmSmMg2AlN
_chemical_formula_sum   'Pm1 Sm1 Mg2 Al1 N1'
_cell_volume   125.08127436
_cell_formula_units_Z   1
loop_
 _symmetry_equiv_pos_site_id
 _symmetry_equiv_pos_as_xyz
  1  'x, y, z'
  2  'x, -y, z'
loop_
 _atom_site_type_symbol
 _atom_site_label
 _atom_site_symmetry_multiplicity
 _atom_site_fract_x
 _atom_site_fract_y
 _atom_site_fract_z
 _atom_site_occupancy
  Pm  Pm0  1  0.43743858  0.50000000  0.05072458  1
  Sm  Sm1  1  0.20963280  0.50000000  0.58276048  1
  Mg  Mg2  1  0.64362617  0.00000000  0.46104146  1
  Mg  Mg3  1  0.99457073  0.00000000  0.17333957  1
  Al  Al4  1  0.80084759  0.50000000  0.81444700  1
  N  N5  1  0.54623390  0.00000000  0.80338712  1
