# generated using pymatgen
data_Pr2Si2Ni2Ge2Pd
_symmetry_space_group_name_H-M   P1
_cell_length_a   5.86699354
_cell_length_b   5.87997805
_cell_length_c   6.29212577
_cell_angle_alpha   104.02057606
_cell_angle_beta   103.45977539
_cell_angle_gamma   118.82504827
_symmetry_Int_Tables_number   1
_chemical_formula_structural   Pr2Si2Ni2Ge2Pd
_chemical_formula_sum   'Pr2 Si2 Ni2 Ge2 Pd1'
_cell_volume   168.17859118
_cell_formula_units_Z   1
loop_
 _symmetry_equiv_pos_site_id
 _symmetry_equiv_pos_as_xyz
  1  'x, y, z'
loop_
 _atom_site_type_symbol
 _atom_site_label
 _atom_site_symmetry_multiplicity
 _atom_site_fract_x
 _atom_site_fract_y
 _atom_site_fract_z
 _atom_site_occupancy
  Pr  Pr0  1  0.04893261  0.03184498  0.90572570  1
  Pr  Pr1  1  0.30467193  0.78606492  0.42629819  1
  Si  Si2  1  0.57244175  0.40592472  0.40731186  1
  Si  Si3  1  0.70707197  0.31216004  0.97674545  1
  Ni  Ni4  1  0.47608087  0.44565392  0.74156267  1
  Ni  Ni5  1  0.69156581  0.66519310  0.20120812  1
  Ge  Ge6  1  0.02736609  0.15121070  0.40423356  1
  Ge  Ge7  1  0.45288114  0.81677546  0.97395932  1
  Pd  Pd8  1  0.93326089  0.42453900  0.70533725  1
