# generated using pymatgen
data_Pr2TlHg2GePd
_symmetry_space_group_name_H-M   Imm2
_cell_length_a   4.50189858
_cell_length_b   5.00763701
_cell_length_c   16.17173602
_cell_angle_alpha   90.00000000
_cell_angle_beta   90.00000000
_cell_angle_gamma   90.00000000
_symmetry_Int_Tables_number   44
_chemical_formula_structural   Pr2TlHg2GePd
_chemical_formula_sum   'Pr4 Tl2 Hg4 Ge2 Pd2'
_cell_volume   364.57357757
_cell_formula_units_Z   2
loop_
 _symmetry_equiv_pos_site_id
 _symmetry_equiv_pos_as_xyz
  1  'x, y, z'
  2  '-x, -y, z'
  3  '-x, y, z'
  4  'x, -y, z'
  5  'x+1/2, y+1/2, z+1/2'
  6  '-x+1/2, -y+1/2, z+1/2'
  7  '-x+1/2, y+1/2, z+1/2'
  8  'x+1/2, -y+1/2, z+1/2'
loop_
 _atom_site_type_symbol
 _atom_site_label
 _atom_site_symmetry_multiplicity
 _atom_site_fract_x
 _atom_site_fract_y
 _atom_site_fract_z
 _atom_site_occupancy
  Pr  Pr0  2  0.00000000  0.00000000  0.53063448  1
  Pr  Pr1  2  0.00000000  0.00000000  0.80580632  1
  Tl  Tl2  2  0.00000000  0.50000000  0.67333800  1
  Hg  Hg3  2  0.00000000  0.00000000  0.03111091  1
  Hg  Hg4  2  0.00000000  0.00000000  0.32719314  1
  Ge  Ge5  2  0.00000000  0.50000000  0.16437382  1
  Pd  Pd6  2  0.00000000  0.50000000  0.42389583  1
