# generated using pymatgen
data_Pr3Te5I3
_symmetry_space_group_name_H-M   P1
_cell_length_a   6.06904264
_cell_length_b   6.45861228
_cell_length_c   11.23737913
_cell_angle_alpha   89.09615985
_cell_angle_beta   81.53002923
_cell_angle_gamma   79.17199929
_symmetry_Int_Tables_number   1
_chemical_formula_structural   Pr3Te5I3
_chemical_formula_sum   'Pr3 Te5 I3'
_cell_volume   427.88499266
_cell_formula_units_Z   1
loop_
 _symmetry_equiv_pos_site_id
 _symmetry_equiv_pos_as_xyz
  1  'x, y, z'
loop_
 _atom_site_type_symbol
 _atom_site_label
 _atom_site_symmetry_multiplicity
 _atom_site_fract_x
 _atom_site_fract_y
 _atom_site_fract_z
 _atom_site_occupancy
  Pr  Pr0  1  0.07002060  0.47591856  0.55793039  1
  Pr  Pr1  1  0.94637415  0.75644531  0.94661747  1
  Pr  Pr2  1  0.96178666  0.17066801  0.25117744  1
  Te  Te3  1  0.24186552  0.34227218  0.81448589  1
  Te  Te4  1  0.31169171  0.46306866  0.28923584  1
  Te  Te5  1  0.62742335  0.31105962  0.48779865  1
  Te  Te6  1  0.83760417  0.27174411  0.95589012  1
  Te  Te7  1  0.87234389  0.69001680  0.22769312  1
  I  I8  1  0.20608897  0.94933795  0.47871309  1
  I  I9  1  0.39324790  0.89443995  0.04723644  1
  I  I10  1  0.69189566  0.79369371  0.71757183  1
