# generated using pymatgen
data_Rb2AgRhS2
_symmetry_space_group_name_H-M   Cm
_cell_length_a   12.31570473
_cell_length_b   4.65843547
_cell_length_c   8.67322690
_cell_angle_alpha   90.00000000
_cell_angle_beta   131.05979026
_cell_angle_gamma   90.00000000
_symmetry_Int_Tables_number   8
_chemical_formula_structural   Rb2AgRhS2
_chemical_formula_sum   'Rb4 Ag2 Rh2 S4'
_cell_volume   375.20234582
_cell_formula_units_Z   2
loop_
 _symmetry_equiv_pos_site_id
 _symmetry_equiv_pos_as_xyz
  1  'x, y, z'
  2  'x, -y, z'
  3  'x+1/2, y+1/2, z'
  4  'x+1/2, -y+1/2, z'
loop_
 _atom_site_type_symbol
 _atom_site_label
 _atom_site_symmetry_multiplicity
 _atom_site_fract_x
 _atom_site_fract_y
 _atom_site_fract_z
 _atom_site_occupancy
  Rb  Rb0  2  0.02144113  0.00000000  0.22016495  1
  Rb  Rb1  2  0.40191145  0.50000000  0.55936666  1
  Ag  Ag2  2  0.14530033  0.50000000  0.97221459  1
  Rh  Rh3  2  0.26486416  0.00000000  0.92633887  1
  S  S4  2  0.26375239  0.00000000  0.18150321  1
  S  S5  2  0.35794780  0.00000000  0.77806772  1
