# generated using pymatgen
data_Rb2Cl3
_symmetry_space_group_name_H-M   Pm
_cell_length_a   5.33455512
_cell_length_b   6.33984490
_cell_length_c   6.03137886
_cell_angle_alpha   90.00000000
_cell_angle_beta   100.04316255
_cell_angle_gamma   90.00000000
_symmetry_Int_Tables_number   6
_chemical_formula_structural   Rb2Cl3
_chemical_formula_sum   'Rb2 Cl3'
_cell_volume   200.85705621
_cell_formula_units_Z   1
loop_
 _symmetry_equiv_pos_site_id
 _symmetry_equiv_pos_as_xyz
  1  'x, y, z'
  2  'x, -y, z'
loop_
 _atom_site_type_symbol
 _atom_site_label
 _atom_site_symmetry_multiplicity
 _atom_site_fract_x
 _atom_site_fract_y
 _atom_site_fract_z
 _atom_site_occupancy
  Rb  Rb0  1  0.06588038  0.00000000  0.40680192  1
  Rb  Rb1  1  0.61091564  0.50000000  0.84165221  1
  Cl  Cl2  1  0.33654677  0.50000000  0.32192583  1
  Cl  Cl3  1  0.70125756  0.00000000  0.80710760  1
  Cl  Cl4  1  0.84814045  0.50000000  0.36077315  1
