# generated using pymatgen
data_Rb2MnFeCl6
_symmetry_space_group_name_H-M   P-1
_cell_length_a   6.03065226
_cell_length_b   7.23135135
_cell_length_c   7.27315281
_cell_angle_alpha   119.75828972
_cell_angle_beta   92.28117167
_cell_angle_gamma   91.64727544
_symmetry_Int_Tables_number   2
_chemical_formula_structural   Rb2MnFeCl6
_chemical_formula_sum   'Rb2 Mn1 Fe1 Cl6'
_cell_volume   274.70430568
_cell_formula_units_Z   1
loop_
 _symmetry_equiv_pos_site_id
 _symmetry_equiv_pos_as_xyz
  1  'x, y, z'
  2  '-x, -y, -z'
loop_
 _atom_site_type_symbol
 _atom_site_label
 _atom_site_symmetry_multiplicity
 _atom_site_fract_x
 _atom_site_fract_y
 _atom_site_fract_z
 _atom_site_occupancy
  Rb  Rb0  2  0.24244768  0.83760465  0.17131728  1
  Mn  Mn1  1  0.50000000  0.50000000  0.50000000  1
  Fe  Fe2  1  0.00000000  0.50000000  0.50000000  1
  Cl  Cl3  2  0.21939361  0.33564496  0.18295982  1
  Cl  Cl4  2  0.24462020  0.34555690  0.66548156  1
  Cl  Cl5  2  0.26269597  0.82074552  0.65483259  1
