# generated using pymatgen
data_Rb2ScPaCBr3
_symmetry_space_group_name_H-M   Pm
_cell_length_a   7.53860145
_cell_length_b   3.84111784
_cell_length_c   8.55954098
_cell_angle_alpha   90.00000000
_cell_angle_beta   109.94213953
_cell_angle_gamma   90.00000000
_symmetry_Int_Tables_number   6
_chemical_formula_structural   Rb2ScPaCBr3
_chemical_formula_sum   'Rb2 Sc1 Pa1 C1 Br3'
_cell_volume   232.99364931
_cell_formula_units_Z   1
loop_
 _symmetry_equiv_pos_site_id
 _symmetry_equiv_pos_as_xyz
  1  'x, y, z'
  2  'x, -y, z'
loop_
 _atom_site_type_symbol
 _atom_site_label
 _atom_site_symmetry_multiplicity
 _atom_site_fract_x
 _atom_site_fract_y
 _atom_site_fract_z
 _atom_site_occupancy
  Rb  Rb0  1  0.46544409  0.00000000  0.20576831  1
  Rb  Rb1  1  0.93591710  0.50000000  0.19112134  1
  Sc  Sc2  1  0.87143896  0.00000000  0.77015062  1
  Pa  Pa3  1  0.52820030  0.50000000  0.76759844  1
  C  C4  1  0.65335389  0.00000000  0.89619214  1
  Br  Br5  1  0.16983722  0.50000000  0.89884740  1
  Br  Br6  1  0.24819651  0.00000000  0.49682678  1
  Br  Br7  1  0.74759337  0.50000000  0.51530665  1
