# generated using pymatgen
data_Rb2SnO3
_symmetry_space_group_name_H-M   Cm
_cell_length_a   6.20905811
_cell_length_b   11.75182259
_cell_length_c   3.52667173
_cell_angle_alpha   90.00000000
_cell_angle_beta   94.17160506
_cell_angle_gamma   90.00000000
_symmetry_Int_Tables_number   8
_chemical_formula_structural   Rb2SnO3
_chemical_formula_sum   'Rb4 Sn2 O6'
_cell_volume   256.65153265
_cell_formula_units_Z   2
loop_
 _symmetry_equiv_pos_site_id
 _symmetry_equiv_pos_as_xyz
  1  'x, y, z'
  2  'x, -y, z'
  3  'x+1/2, y+1/2, z'
  4  'x+1/2, -y+1/2, z'
loop_
 _atom_site_type_symbol
 _atom_site_label
 _atom_site_symmetry_multiplicity
 _atom_site_fract_x
 _atom_site_fract_y
 _atom_site_fract_z
 _atom_site_occupancy
  Rb  Rb0  4  0.19445743  0.82060378  0.63047450  1
  Sn  Sn1  2  0.19048348  0.50000000  0.16657556  1
  O  O2  4  0.04125113  0.35499220  0.14873472  1
  O  O3  2  0.37605192  0.50000000  0.69132454  1
