# generated using pymatgen
data_Rb2TiTlSe4
_symmetry_space_group_name_H-M   Cm
_cell_length_a   7.32760095
_cell_length_b   11.86358557
_cell_length_c   7.04745867
_cell_angle_alpha   90.00000000
_cell_angle_beta   120.26620487
_cell_angle_gamma   90.00000000
_symmetry_Int_Tables_number   8
_chemical_formula_structural   Rb2TiTlSe4
_chemical_formula_sum   'Rb4 Ti2 Tl2 Se8'
_cell_volume   529.13892302
_cell_formula_units_Z   2
loop_
 _symmetry_equiv_pos_site_id
 _symmetry_equiv_pos_as_xyz
  1  'x, y, z'
  2  'x, -y, z'
  3  'x+1/2, y+1/2, z'
  4  'x+1/2, -y+1/2, z'
loop_
 _atom_site_type_symbol
 _atom_site_label
 _atom_site_symmetry_multiplicity
 _atom_site_fract_x
 _atom_site_fract_y
 _atom_site_fract_z
 _atom_site_occupancy
  Rb  Rb0  4  0.31925543  0.25469455  0.49165557  1
  Ti  Ti1  2  0.08725581  0.00000000  0.99963640  1
  Tl  Tl2  2  0.08431914  0.50000000  0.99394029  1
  Se  Se3  4  0.38144722  0.33882396  0.99923448  1
  Se  Se4  2  0.13594784  0.00000000  0.68179335  1
  Se  Se5  2  0.44635725  0.00000000  0.31384898  1
