# generated using pymatgen
data_Rb3AlCoF7
_symmetry_space_group_name_H-M   P1
_cell_length_a   6.52155772
_cell_length_b   6.67775861
_cell_length_c   7.17958584
_cell_angle_alpha   88.07983927
_cell_angle_beta   64.52186993
_cell_angle_gamma   61.83908516
_symmetry_Int_Tables_number   1
_chemical_formula_structural   Rb3AlCoF7
_chemical_formula_sum   'Rb3 Al1 Co1 F7'
_cell_volume   243.13774688
_cell_formula_units_Z   1
loop_
 _symmetry_equiv_pos_site_id
 _symmetry_equiv_pos_as_xyz
  1  'x, y, z'
loop_
 _atom_site_type_symbol
 _atom_site_label
 _atom_site_symmetry_multiplicity
 _atom_site_fract_x
 _atom_site_fract_y
 _atom_site_fract_z
 _atom_site_occupancy
  Rb  Rb0  1  0.15422334  0.47011257  0.54299032  1
  Rb  Rb1  1  0.20379757  0.05126486  0.96393283  1
  Rb  Rb2  1  0.66045127  0.76818387  0.23521382  1
  Al  Al3  1  0.84492184  0.11693945  0.54389221  1
  Co  Co4  1  0.50327552  0.40441267  0.91997775  1
  F  F5  1  0.06125344  0.08029197  0.64320789  1
  F  F6  1  0.09388255  0.86857023  0.33775059  1
  F  F7  1  0.16829654  0.52593426  0.91775871  1
  F  F8  1  0.49561649  0.19157243  0.11222673  1
  F  F9  1  0.60551740  0.04278940  0.58936493  1
  F  F10  1  0.64689756  0.60351486  0.88324724  1
  F  F11  1  0.80802157  0.33540338  0.39993898  1
