# generated using pymatgen
data_Rb3BiCl6
_symmetry_space_group_name_H-M   P1
_cell_length_a   8.95596422
_cell_length_b   9.13399550
_cell_length_c   9.97288883
_cell_angle_alpha   65.33023078
_cell_angle_beta   84.29321241
_cell_angle_gamma   83.24511645
_symmetry_Int_Tables_number   1
_chemical_formula_structural   Rb3BiCl6
_chemical_formula_sum   'Rb6 Bi2 Cl12'
_cell_volume   735.06581009
_cell_formula_units_Z   2
loop_
 _symmetry_equiv_pos_site_id
 _symmetry_equiv_pos_as_xyz
  1  'x, y, z'
loop_
 _atom_site_type_symbol
 _atom_site_label
 _atom_site_symmetry_multiplicity
 _atom_site_fract_x
 _atom_site_fract_y
 _atom_site_fract_z
 _atom_site_occupancy
  Rb  Rb0  1  0.08813387  0.94392559  0.64378134  1
  Rb  Rb1  1  0.11706305  0.39218845  0.11418855  1
  Rb  Rb2  1  0.19549375  0.47071573  0.56850841  1
  Rb  Rb3  1  0.67383925  0.67197541  0.96137716  1
  Rb  Rb4  1  0.76099580  0.77895005  0.40650434  1
  Rb  Rb5  1  0.78664314  0.21143927  0.87273387  1
  Bi  Bi6  1  0.25256636  0.85933098  0.08395291  1
  Bi  Bi7  1  0.62416830  0.29473530  0.43303592  1
  Cl  Cl8  1  0.13126287  0.87928974  0.33991975  1
  Cl  Cl9  1  0.16215765  0.15998935  0.89828935  1
  Cl  Cl10  1  0.32718430  0.73558346  0.87703996  1
  Cl  Cl11  1  0.37471566  0.15000864  0.46255875  1
  Cl  Cl12  1  0.40493744  0.55458030  0.25214013  1
  Cl  Cl13  1  0.52436675  0.96144355  0.07941434  1
  Cl  Cl14  1  0.55158277  0.44344689  0.62058608  1
  Cl  Cl15  1  0.72381113  0.01531724  0.63615497  1
  Cl  Cl16  1  0.74943707  0.25660129  0.18565559  1
  Cl  Cl17  1  0.91363900  0.38673178  0.43360097  1
  Cl  Cl18  1  0.92979079  0.58352012  0.75436067  1
  Cl  Cl19  1  0.96426597  0.78540726  0.06373506  1
