# generated using pymatgen
data_Rb3NaCl4
_symmetry_space_group_name_H-M   Cm
_cell_length_a   9.25334788
_cell_length_b   9.21395202
_cell_length_c   6.53586241
_cell_angle_alpha   90.00000000
_cell_angle_beta   90.25997167
_cell_angle_gamma   90.00000000
_symmetry_Int_Tables_number   8
_chemical_formula_structural   Rb3NaCl4
_chemical_formula_sum   'Rb6 Na2 Cl8'
_cell_volume   557.24126179
_cell_formula_units_Z   2
loop_
 _symmetry_equiv_pos_site_id
 _symmetry_equiv_pos_as_xyz
  1  'x, y, z'
  2  'x, -y, z'
  3  'x+1/2, y+1/2, z'
  4  'x+1/2, -y+1/2, z'
loop_
 _atom_site_type_symbol
 _atom_site_label
 _atom_site_symmetry_multiplicity
 _atom_site_fract_x
 _atom_site_fract_y
 _atom_site_fract_z
 _atom_site_occupancy
  Rb  Rb0  4  0.20795408  0.25007260  0.58124882  1
  Rb  Rb1  2  0.45826510  0.00000000  0.08063175  1
  Na  Na2  2  0.45899745  0.50000000  0.07756898  1
  Cl  Cl3  4  0.20773063  0.24823472  0.08116711  1
  Cl  Cl4  2  0.45658021  0.50000000  0.58493942  1
  Cl  Cl5  2  0.45850207  0.00000000  0.58056029  1
