# generated using pymatgen
data_Rb3Pr2Tl3Te8
_symmetry_space_group_name_H-M   P1
_cell_length_a   6.23236470
_cell_length_b   9.32819656
_cell_length_c   10.94893385
_cell_angle_alpha   91.15667783
_cell_angle_beta   100.28921246
_cell_angle_gamma   99.56712963
_symmetry_Int_Tables_number   1
_chemical_formula_structural   Rb3Pr2Tl3Te8
_chemical_formula_sum   'Rb3 Pr2 Tl3 Te8'
_cell_volume   616.77150291
_cell_formula_units_Z   1
loop_
 _symmetry_equiv_pos_site_id
 _symmetry_equiv_pos_as_xyz
  1  'x, y, z'
loop_
 _atom_site_type_symbol
 _atom_site_label
 _atom_site_symmetry_multiplicity
 _atom_site_fract_x
 _atom_site_fract_y
 _atom_site_fract_z
 _atom_site_occupancy
  Rb  Rb0  1  0.21414953  0.46025633  0.53322722  1
  Rb  Rb1  1  0.62266841  0.37404751  0.27239894  1
  Rb  Rb2  1  0.77653057  0.39755610  0.77891748  1
  Pr  Pr3  1  0.10815168  0.95856182  0.01641122  1
  Pr  Pr4  1  0.74087395  0.87513491  0.32162517  1
  Tl  Tl5  1  0.14559179  0.48867812  0.06475517  1
  Tl  Tl6  1  0.21707616  0.98740391  0.53754042  1
  Tl  Tl7  1  0.77004619  0.89575910  0.73256559  1
  Te  Te8  1  0.05673238  0.15980477  0.24176756  1
  Te  Te9  1  0.20604657  0.76083874  0.25842292  1
  Te  Te10  1  0.26297797  0.17068685  0.81551793  1
  Te  Te11  1  0.32069265  0.71463710  0.86263430  1
  Te  Te12  1  0.64604535  0.13485854  0.01827240  1
  Te  Te13  1  0.70406464  0.69215417  0.04380758  1
  Te  Te14  1  0.70483464  0.12132039  0.52202762  1
  Te  Te15  1  0.76172020  0.65098614  0.52837452  1
