# generated using pymatgen
data_Rb4H2BrClO2
_symmetry_space_group_name_H-M   Pm
_cell_length_a   5.94076072
_cell_length_b   5.45954552
_cell_length_c   8.35017189
_cell_angle_alpha   90.00000000
_cell_angle_beta   99.59068236
_cell_angle_gamma   90.00000000
_symmetry_Int_Tables_number   6
_chemical_formula_structural   Rb4H2BrClO2
_chemical_formula_sum   'Rb4 H2 Br1 Cl1 O2'
_cell_volume   267.04292498
_cell_formula_units_Z   1
loop_
 _symmetry_equiv_pos_site_id
 _symmetry_equiv_pos_as_xyz
  1  'x, y, z'
  2  'x, -y, z'
loop_
 _atom_site_type_symbol
 _atom_site_label
 _atom_site_symmetry_multiplicity
 _atom_site_fract_x
 _atom_site_fract_y
 _atom_site_fract_z
 _atom_site_occupancy
  Rb  Rb0  1  0.39291655  0.00000000  0.14588570  1
  Rb  Rb1  1  0.41379159  0.00000000  0.64268467  1
  Rb  Rb2  1  0.80772207  0.50000000  0.05953043  1
  Rb  Rb3  1  0.80976459  0.50000000  0.53455930  1
  H  H4  1  0.86878421  0.00000000  0.38101210  1
  H  H5  1  0.86910232  0.00000000  0.90073456  1
  Br  Br6  1  0.24501383  0.50000000  0.85401309  1
  Cl  Cl7  1  0.25817276  0.50000000  0.35723343  1
  O  O8  1  0.73528441  0.00000000  0.95434914  1
  O  O9  1  0.73689631  0.00000000  0.43656915  1
