# generated using pymatgen
data_Rb4LiSbAsO7
_symmetry_space_group_name_H-M   P1
_cell_length_a   6.04070026
_cell_length_b   6.24810435
_cell_length_c   8.28128975
_cell_angle_alpha   102.67602083
_cell_angle_beta   92.83507176
_cell_angle_gamma   92.94260161
_symmetry_Int_Tables_number   1
_chemical_formula_structural   Rb4LiSbAsO7
_chemical_formula_sum   'Rb4 Li1 Sb1 As1 O7'
_cell_volume   303.94777098
_cell_formula_units_Z   1
loop_
 _symmetry_equiv_pos_site_id
 _symmetry_equiv_pos_as_xyz
  1  'x, y, z'
loop_
 _atom_site_type_symbol
 _atom_site_label
 _atom_site_symmetry_multiplicity
 _atom_site_fract_x
 _atom_site_fract_y
 _atom_site_fract_z
 _atom_site_occupancy
  Rb  Rb0  1  0.30604918  0.46032190  0.43927579  1
  Rb  Rb1  1  0.34022177  0.87315944  0.10658117  1
  Rb  Rb2  1  0.78941365  0.38629438  0.11620642  1
  Rb  Rb3  1  0.82777112  0.68421271  0.72512665  1
  Li  Li4  1  0.39176370  0.97497385  0.59095982  1
  Sb  Sb5  1  0.84754702  0.98696675  0.38665544  1
  As  As6  1  0.27592176  0.31237088  0.87324592  1
  O  O7  1  0.10307189  0.90751669  0.50042838  1
  O  O8  1  0.28754669  0.37805499  0.08929322  1
  O  O9  1  0.30996265  0.54996192  0.79838960  1
  O  O10  1  0.48201683  0.13358848  0.80999203  1
  O  O11  1  0.59547859  0.83441800  0.45058128  1
  O  O12  1  0.81964364  0.29736661  0.43563761  1
  O  O13  1  0.85807840  0.88367220  0.15150493  1
