# generated using pymatgen
data_Rb4PSO6
_symmetry_space_group_name_H-M   P1
_cell_length_a   6.25977502
_cell_length_b   6.31398602
_cell_length_c   7.38765338
_cell_angle_alpha   84.18427055
_cell_angle_beta   83.83860174
_cell_angle_gamma   61.05244455
_symmetry_Int_Tables_number   1
_chemical_formula_structural   Rb4PSO6
_chemical_formula_sum   'Rb4 P1 S1 O6'
_cell_volume   253.62470504
_cell_formula_units_Z   1
loop_
 _symmetry_equiv_pos_site_id
 _symmetry_equiv_pos_as_xyz
  1  'x, y, z'
loop_
 _atom_site_type_symbol
 _atom_site_label
 _atom_site_symmetry_multiplicity
 _atom_site_fract_x
 _atom_site_fract_y
 _atom_site_fract_z
 _atom_site_occupancy
  Rb  Rb0  1  0.10926193  0.27511801  0.04955585  1
  Rb  Rb1  1  0.43060648  0.60062987  0.31139494  1
  Rb  Rb2  1  0.43281916  0.60831218  0.81439407  1
  Rb  Rb3  1  0.76715214  0.94023010  0.51843157  1
  P  P4  1  0.10717825  0.27327020  0.52696365  1
  S  S5  1  0.78040242  0.95516454  0.99813083  1
  O  O6  1  0.01196957  0.81233908  0.10667828  1
  O  O7  1  0.21196139  0.38283874  0.64877180  1
  O  O8  1  0.23464426  0.99212546  0.54313492  1
  O  O9  1  0.62540712  0.19564785  0.09420520  1
  O  O10  1  0.63520058  0.81357299  0.03299655  1
  O  O11  1  0.82375471  0.39304629  0.54317170  1
