# generated using pymatgen
data_RbHgO
_symmetry_space_group_name_H-M   Cm
_cell_length_a   6.70374902
_cell_length_b   3.90676546
_cell_length_c   5.84610604
_cell_angle_alpha   90.00000000
_cell_angle_beta   92.47943558
_cell_angle_gamma   90.00000000
_symmetry_Int_Tables_number   8
_chemical_formula_structural   RbHgO
_chemical_formula_sum   'Rb2 Hg2 O2'
_cell_volume   152.96603303
_cell_formula_units_Z   2
loop_
 _symmetry_equiv_pos_site_id
 _symmetry_equiv_pos_as_xyz
  1  'x, y, z'
  2  'x, -y, z'
  3  'x+1/2, y+1/2, z'
  4  'x+1/2, -y+1/2, z'
loop_
 _atom_site_type_symbol
 _atom_site_label
 _atom_site_symmetry_multiplicity
 _atom_site_fract_x
 _atom_site_fract_y
 _atom_site_fract_z
 _atom_site_occupancy
  Rb  Rb0  2  0.25406689  0.50000000  0.11510020  1
  Hg  Hg1  2  0.40166706  0.00000000  0.65362539  1
  O  O2  2  0.07577632  0.00000000  0.82758380  1
