# generated using pymatgen
data_RbPrF2
_symmetry_space_group_name_H-M   P-1
_cell_length_a   3.85242082
_cell_length_b   4.74823892
_cell_length_c   5.80779150
_cell_angle_alpha   86.93082319
_cell_angle_beta   77.18493739
_cell_angle_gamma   83.04229862
_symmetry_Int_Tables_number   2
_chemical_formula_structural   RbPrF2
_chemical_formula_sum   'Rb1 Pr1 F2'
_cell_volume   102.78919743
_cell_formula_units_Z   1
loop_
 _symmetry_equiv_pos_site_id
 _symmetry_equiv_pos_as_xyz
  1  'x, y, z'
  2  '-x, -y, -z'
loop_
 _atom_site_type_symbol
 _atom_site_label
 _atom_site_symmetry_multiplicity
 _atom_site_fract_x
 _atom_site_fract_y
 _atom_site_fract_z
 _atom_site_occupancy
  Rb  Rb0  1  0.00000000  0.50000000  0.50000000  1
  Pr  Pr1  1  0.50000000  0.00000000  0.00000000  1
  F  F2  2  0.09154847  0.98284474  0.75128052  1
