# generated using pymatgen
data_S
_symmetry_space_group_name_H-M   P-1
_cell_length_a   3.92501575
_cell_length_b   5.85489038
_cell_length_c   6.02064602
_cell_angle_alpha   87.26958176
_cell_angle_beta   86.21077655
_cell_angle_gamma   70.43743582
_symmetry_Int_Tables_number   2
_chemical_formula_structural   S
_chemical_formula_sum   S4
_cell_volume   130.03829135
_cell_formula_units_Z   4
loop_
 _symmetry_equiv_pos_site_id
 _symmetry_equiv_pos_as_xyz
  1  'x, y, z'
  2  '-x, -y, -z'
loop_
 _atom_site_type_symbol
 _atom_site_label
 _atom_site_symmetry_multiplicity
 _atom_site_fract_x
 _atom_site_fract_y
 _atom_site_fract_z
 _atom_site_occupancy
  S  S0  2  0.14741081  0.66595261  0.16103844  1
  S  S1  2  0.32228372  0.32358778  0.15963279  1
