# generated using pymatgen
data_SbSI
_symmetry_space_group_name_H-M   P2_1/m
_cell_length_a   5.69382218
_cell_length_b   4.16696444
_cell_length_c   10.60770639
_cell_angle_alpha   90.00000000
_cell_angle_beta   105.52023151
_cell_angle_gamma   90.00000000
_symmetry_Int_Tables_number   11
_chemical_formula_structural   SbSI
_chemical_formula_sum   'Sb2 S2 I2'
_cell_volume   242.50078231
_cell_formula_units_Z   2
loop_
 _symmetry_equiv_pos_site_id
 _symmetry_equiv_pos_as_xyz
  1  'x, y, z'
  2  '-x, -y, -z'
  3  '-x, y+1/2, -z'
  4  'x, -y+1/2, z'
loop_
 _atom_site_type_symbol
 _atom_site_label
 _atom_site_symmetry_multiplicity
 _atom_site_fract_x
 _atom_site_fract_y
 _atom_site_fract_z
 _atom_site_occupancy
  Sb  Sb0  2  0.40221128  0.25000000  0.13087608  1
  S  S1  2  0.23731574  0.75000000  0.95866188  1
  I  I2  2  0.34572885  0.25000000  0.66359040  1
