# generated using pymatgen
data_Sc2Al6GaNi5O
_symmetry_space_group_name_H-M   Amm2
_cell_length_a   4.14389006
_cell_length_b   4.13480889
_cell_length_c   23.21711947
_cell_angle_alpha   90.00000000
_cell_angle_beta   90.00000000
_cell_angle_gamma   90.00000000
_symmetry_Int_Tables_number   38
_chemical_formula_structural   Sc2Al6GaNi5O
_chemical_formula_sum   'Sc4 Al12 Ga2 Ni10 O2'
_cell_volume   397.80661668
_cell_formula_units_Z   2
loop_
 _symmetry_equiv_pos_site_id
 _symmetry_equiv_pos_as_xyz
  1  'x, y, z'
  2  '-x, -y, z'
  3  '-x, y, z'
  4  'x, -y, z'
  5  'x, y+1/2, z+1/2'
  6  '-x, -y+1/2, z+1/2'
  7  '-x, y+1/2, z+1/2'
  8  'x, -y+1/2, z+1/2'
loop_
 _atom_site_type_symbol
 _atom_site_label
 _atom_site_symmetry_multiplicity
 _atom_site_fract_x
 _atom_site_fract_y
 _atom_site_fract_z
 _atom_site_occupancy
  Sc  Sc0  2  0.00000000  0.00000000  0.86551459  1
  Sc  Sc1  2  0.50000000  0.00000000  0.36807034  1
  Al  Al2  2  0.00000000  0.00000000  0.02581176  1
  Al  Al3  2  0.00000000  0.00000000  0.14725404  1
  Al  Al4  2  0.00000000  0.00000000  0.26698462  1
  Al  Al5  2  0.50000000  0.00000000  0.52508076  1
  Al  Al6  2  0.50000000  0.00000000  0.64521991  1
  Al  Al7  2  0.50000000  0.00000000  0.76251375  1
  Ga  Ga8  2  0.00000000  0.00000000  0.44993135  1
  Ni  Ni9  2  0.00000000  0.00000000  0.58624608  1
  Ni  Ni10  2  0.00000000  0.00000000  0.70983563  1
  Ni  Ni11  2  0.50000000  0.00000000  0.08599193  1
  Ni  Ni12  2  0.50000000  0.00000000  0.20706961  1
  Ni  Ni13  2  0.50000000  0.00000000  0.96932288  1
  O  O14  2  0.50000000  0.00000000  0.84363719  1
