# generated using pymatgen
data_Sc2Ge2IrAu
_symmetry_space_group_name_H-M   Pmm2
_cell_length_a   3.91937053
_cell_length_b   4.07011530
_cell_length_c   6.81688465
_cell_angle_alpha   90.00000000
_cell_angle_beta   90.00000000
_cell_angle_gamma   90.00000000
_symmetry_Int_Tables_number   25
_chemical_formula_structural   Sc2Ge2IrAu
_chemical_formula_sum   'Sc2 Ge2 Ir1 Au1'
_cell_volume   108.74492047
_cell_formula_units_Z   1
loop_
 _symmetry_equiv_pos_site_id
 _symmetry_equiv_pos_as_xyz
  1  'x, y, z'
  2  '-x, -y, z'
  3  '-x, y, z'
  4  'x, -y, z'
loop_
 _atom_site_type_symbol
 _atom_site_label
 _atom_site_symmetry_multiplicity
 _atom_site_fract_x
 _atom_site_fract_y
 _atom_site_fract_z
 _atom_site_occupancy
  Sc  Sc0  1  0.00000000  0.50000000  0.86294375  1
  Sc  Sc1  1  0.50000000  0.00000000  0.50845890  1
  Ge  Ge2  1  0.00000000  0.50000000  0.45139220  1
  Ge  Ge3  1  0.50000000  0.00000000  0.91506213  1
  Ir  Ir4  1  0.50000000  0.50000000  0.20168458  1
  Au  Au5  1  0.00000000  0.00000000  0.17909558  1
