# generated using pymatgen
data_Sc2TlO5
_symmetry_space_group_name_H-M   P1
_cell_length_a   4.05069006
_cell_length_b   4.07521645
_cell_length_c   6.98571488
_cell_angle_alpha   89.69209985
_cell_angle_beta   82.44010962
_cell_angle_gamma   89.75418402
_symmetry_Int_Tables_number   1
_chemical_formula_structural   Sc2TlO5
_chemical_formula_sum   'Sc2 Tl1 O5'
_cell_volume   114.31152061
_cell_formula_units_Z   1
loop_
 _symmetry_equiv_pos_site_id
 _symmetry_equiv_pos_as_xyz
  1  'x, y, z'
loop_
 _atom_site_type_symbol
 _atom_site_label
 _atom_site_symmetry_multiplicity
 _atom_site_fract_x
 _atom_site_fract_y
 _atom_site_fract_z
 _atom_site_occupancy
  Sc  Sc0  1  0.04752764  0.09315865  0.69285018  1
  Sc  Sc1  1  0.62373629  0.09467984  0.33156277  1
  Tl  Tl2  1  0.15871821  0.59166924  0.06592900  1
  O  O3  1  0.09335909  0.59232371  0.75517568  1
  O  O4  1  0.10647689  0.10735175  0.38858566  1
  O  O5  1  0.56317122  0.08415639  0.63163425  1
  O  O6  1  0.58264949  0.59652413  0.23603294  1
  O  O7  1  0.95071102  0.09318899  0.02079572  1
