# generated using pymatgen
data_Sc3AlPdO2F9
_symmetry_space_group_name_H-M   Cm
_cell_length_a   7.03160371
_cell_length_b   7.06083839
_cell_length_c   9.95238129
_cell_angle_alpha   90.00000000
_cell_angle_beta   93.40466909
_cell_angle_gamma   90.00000000
_symmetry_Int_Tables_number   8
_chemical_formula_structural   Sc3AlPdO2F9
_chemical_formula_sum   'Sc6 Al2 Pd2 O4 F18'
_cell_volume   493.25381581
_cell_formula_units_Z   2
loop_
 _symmetry_equiv_pos_site_id
 _symmetry_equiv_pos_as_xyz
  1  'x, y, z'
  2  'x, -y, z'
  3  'x+1/2, y+1/2, z'
  4  'x+1/2, -y+1/2, z'
loop_
 _atom_site_type_symbol
 _atom_site_label
 _atom_site_symmetry_multiplicity
 _atom_site_fract_x
 _atom_site_fract_y
 _atom_site_fract_z
 _atom_site_occupancy
  Sc  Sc0  2  0.01380463  0.00000000  0.91765598  1
  Sc  Sc1  2  0.42910595  0.00000000  0.72911334  1
  Sc  Sc2  2  0.44159180  0.50000000  0.55770684  1
  Al  Al3  2  0.48931530  0.00000000  0.03839940  1
  Pd  Pd4  2  0.35647671  0.00000000  0.41538575  1
  O  O5  2  0.22087891  0.00000000  0.60235586  1
  O  O6  2  0.29537465  0.00000000  0.91316971  1
  F  F7  4  0.00642241  0.23275977  0.03786580  1
  F  F8  4  0.39100538  0.69507888  0.42702647  1
  F  F9  4  0.46529106  0.69615205  0.75674895  1
  F  F10  2  0.17666983  0.50000000  0.63814178  1
  F  F11  2  0.19335810  0.50000000  0.93710764  1
  F  F12  2  0.47865020  0.00000000  0.20797833  1
