# generated using pymatgen
data_Sm2GaAg3
_symmetry_space_group_name_H-M   Amm2
_cell_length_a   5.88547907
_cell_length_b   4.49524707
_cell_length_c   10.34318708
_cell_angle_alpha   90.00000000
_cell_angle_beta   90.00000000
_cell_angle_gamma   90.00000000
_symmetry_Int_Tables_number   38
_chemical_formula_structural   Sm2GaAg3
_chemical_formula_sum   'Sm4 Ga2 Ag6'
_cell_volume   273.64641687
_cell_formula_units_Z   2
loop_
 _symmetry_equiv_pos_site_id
 _symmetry_equiv_pos_as_xyz
  1  'x, y, z'
  2  '-x, -y, z'
  3  '-x, y, z'
  4  'x, -y, z'
  5  'x, y+1/2, z+1/2'
  6  '-x, -y+1/2, z+1/2'
  7  '-x, y+1/2, z+1/2'
  8  'x, -y+1/2, z+1/2'
loop_
 _atom_site_type_symbol
 _atom_site_label
 _atom_site_symmetry_multiplicity
 _atom_site_fract_x
 _atom_site_fract_y
 _atom_site_fract_z
 _atom_site_occupancy
  Sm  Sm0  2  0.00000000  0.00000000  0.51245717  1
  Sm  Sm1  2  0.50000000  0.00000000  0.90425438  1
  Ga  Ga2  2  0.50000000  0.00000000  0.60435545  1
  Ag  Ag3  4  0.25216736  0.00000000  0.19642404  1
  Ag  Ag4  2  0.00000000  0.00000000  0.80893343  1
