# generated using pymatgen
data_SmDyInAg2
_symmetry_space_group_name_H-M   R3m
_cell_length_a   4.92030346
_cell_length_b   4.92030346
_cell_length_c   17.64511979
_cell_angle_alpha   90.00000000
_cell_angle_beta   90.00000000
_cell_angle_gamma   120.00000000
_symmetry_Int_Tables_number   160
_chemical_formula_structural   SmDyInAg2
_chemical_formula_sum   'Sm3 Dy3 In3 Ag6'
_cell_volume   369.94658264
_cell_formula_units_Z   3
loop_
 _symmetry_equiv_pos_site_id
 _symmetry_equiv_pos_as_xyz
  1  'x, y, z'
  2  '-y, x-y, z'
  3  '-x+y, -x, z'
  4  '-y, -x, z'
  5  '-x+y, y, z'
  6  'x, x-y, z'
  7  'x+2/3, y+1/3, z+1/3'
  8  '-y+2/3, x-y+1/3, z+1/3'
  9  '-x+y+2/3, -x+1/3, z+1/3'
  10  '-y+2/3, -x+1/3, z+1/3'
  11  '-x+y+2/3, y+1/3, z+1/3'
  12  'x+2/3, x-y+1/3, z+1/3'
  13  'x+1/3, y+2/3, z+2/3'
  14  '-y+1/3, x-y+2/3, z+2/3'
  15  '-x+y+1/3, -x+2/3, z+2/3'
  16  '-y+1/3, -x+2/3, z+2/3'
  17  '-x+y+1/3, y+2/3, z+2/3'
  18  'x+1/3, x-y+2/3, z+2/3'
loop_
 _atom_site_type_symbol
 _atom_site_label
 _atom_site_symmetry_multiplicity
 _atom_site_fract_x
 _atom_site_fract_y
 _atom_site_fract_z
 _atom_site_occupancy
  Sm  Sm0  3  0.00000000  0.00000000  0.12979893  1
  Dy  Dy1  3  0.00000000  0.00000000  0.32287925  1
  In  In2  3  0.00000000  0.00000000  0.90642494  1
  Ag  Ag3  3  0.00000000  0.00000000  0.54951169  1
  Ag  Ag4  3  0.00000000  0.00000000  0.72166096  1
