# generated using pymatgen
data_SmHoSeO2
_symmetry_space_group_name_H-M   Pmm2
_cell_length_a   3.38995095
_cell_length_b   3.41963391
_cell_length_c   7.49194228
_cell_angle_alpha   90.00000000
_cell_angle_beta   90.00000000
_cell_angle_gamma   90.00000000
_symmetry_Int_Tables_number   25
_chemical_formula_structural   SmHoSeO2
_chemical_formula_sum   'Sm1 Ho1 Se1 O2'
_cell_volume   86.84952569
_cell_formula_units_Z   1
loop_
 _symmetry_equiv_pos_site_id
 _symmetry_equiv_pos_as_xyz
  1  'x, y, z'
  2  '-x, -y, z'
  3  '-x, y, z'
  4  'x, -y, z'
loop_
 _atom_site_type_symbol
 _atom_site_label
 _atom_site_symmetry_multiplicity
 _atom_site_fract_x
 _atom_site_fract_y
 _atom_site_fract_z
 _atom_site_occupancy
  Sm  Sm0  1  0.50000000  0.00000000  0.91136114  1
  Ho  Ho1  1  0.00000000  0.50000000  0.53143356  1
  Se  Se2  1  0.50000000  0.50000000  0.22508827  1
  O  O3  1  0.00000000  0.50000000  0.83702739  1
  O  O4  1  0.50000000  0.00000000  0.59209081  1
