# generated using pymatgen
data_SmLu3Ni
_symmetry_space_group_name_H-M   P-1
_cell_length_a   6.72215704
_cell_length_b   6.72824890
_cell_length_c   6.85019335
_cell_angle_alpha   91.51059070
_cell_angle_beta   112.39581411
_cell_angle_gamma   108.79537047
_symmetry_Int_Tables_number   2
_chemical_formula_structural   SmLu3Ni
_chemical_formula_sum   'Sm2 Lu6 Ni2'
_cell_volume   267.21466526
_cell_formula_units_Z   2
loop_
 _symmetry_equiv_pos_site_id
 _symmetry_equiv_pos_as_xyz
  1  'x, y, z'
  2  '-x, -y, -z'
loop_
 _atom_site_type_symbol
 _atom_site_label
 _atom_site_symmetry_multiplicity
 _atom_site_fract_x
 _atom_site_fract_y
 _atom_site_fract_z
 _atom_site_occupancy
  Sm  Sm0  2  0.29120967  0.32687949  0.07851497  1
  Lu  Lu1  2  0.17936361  0.66669341  0.39363928  1
  Lu  Lu2  2  0.24500385  0.80635769  0.89791461  1
  Lu  Lu3  2  0.27205747  0.20217741  0.55194777  1
  Ni  Ni4  2  0.44448909  0.02424516  0.30041489  1
