# generated using pymatgen
data_Sn2Pd
_symmetry_space_group_name_H-M   P1
_cell_length_a   6.61772644
_cell_length_b   6.90217503
_cell_length_c   9.22482557
_cell_angle_alpha   69.99987476
_cell_angle_beta   69.52466612
_cell_angle_gamma   62.59216973
_symmetry_Int_Tables_number   1
_chemical_formula_structural   Sn2Pd
_chemical_formula_sum   'Sn10 Pd5'
_cell_volume   342.03107802
_cell_formula_units_Z   5
loop_
 _symmetry_equiv_pos_site_id
 _symmetry_equiv_pos_as_xyz
  1  'x, y, z'
loop_
 _atom_site_type_symbol
 _atom_site_label
 _atom_site_symmetry_multiplicity
 _atom_site_fract_x
 _atom_site_fract_y
 _atom_site_fract_z
 _atom_site_occupancy
  Sn  Sn0  1  0.12577347  0.80850711  0.18466081  1
  Sn  Sn1  1  0.25582374  0.90420703  0.48605723  1
  Sn  Sn2  1  0.42852982  0.37710728  0.71215578  1
  Sn  Sn3  1  0.44826695  0.28519138  0.17079579  1
  Sn  Sn4  1  0.48109345  0.76996392  0.81823830  1
  Sn  Sn5  1  0.68738232  0.68899962  0.19293829  1
  Sn  Sn6  1  0.69275926  0.02891380  0.46346694  1
  Sn  Sn7  1  0.87560843  0.99102809  0.82558055  1
  Sn  Sn8  1  0.93188183  0.32195068  0.94454533  1
  Sn  Sn9  1  0.93875337  0.41302382  0.50860802  1
  Pd  Pd10  1  0.01026384  0.23272254  0.24707456  1
  Pd  Pd11  1  0.14716116  0.57490946  0.97113035  1
  Pd  Pd12  1  0.36117374  0.48614016  0.41785777  1
  Pd  Pd13  1  0.40424537  0.06124586  0.99093688  1
  Pd  Pd14  1  0.95924852  0.66285826  0.67755980  1
