# generated using pymatgen
data_Sn3IBr2O3
_symmetry_space_group_name_H-M   P1
_cell_length_a   5.93297536
_cell_length_b   6.38769942
_cell_length_c   7.30472673
_cell_angle_alpha   71.70539949
_cell_angle_beta   80.72738710
_cell_angle_gamma   69.92537986
_symmetry_Int_Tables_number   1
_chemical_formula_structural   Sn3IBr2O3
_chemical_formula_sum   'Sn3 I1 Br2 O3'
_cell_volume   246.43097618
_cell_formula_units_Z   1
loop_
 _symmetry_equiv_pos_site_id
 _symmetry_equiv_pos_as_xyz
  1  'x, y, z'
loop_
 _atom_site_type_symbol
 _atom_site_label
 _atom_site_symmetry_multiplicity
 _atom_site_fract_x
 _atom_site_fract_y
 _atom_site_fract_z
 _atom_site_occupancy
  Sn  Sn0  1  0.06141176  0.89385116  0.23407157  1
  Sn  Sn1  1  0.14694119  0.29721434  0.47869843  1
  Sn  Sn2  1  0.42862156  0.29719493  0.02687315  1
  I  I3  1  0.63468569  0.35332411  0.52984450  1
  Br  Br4  1  0.31655035  0.93882056  0.88585235  1
  Br  Br5  1  0.96855567  0.73208496  0.61530780  1
  O  O6  1  0.16966780  0.55878125  0.22933440  1
  O  O7  1  0.24211492  0.09211976  0.28224085  1
  O  O8  1  0.75326274  0.09596319  0.13540626  1
