# generated using pymatgen
data_Sr2CaMg2ZnAs3N
_symmetry_space_group_name_H-M   Cm
_cell_length_a   15.79046643
_cell_length_b   4.57169337
_cell_length_c   6.64041057
_cell_angle_alpha   90.00000000
_cell_angle_beta   94.08630080
_cell_angle_gamma   90.00000000
_symmetry_Int_Tables_number   8
_chemical_formula_structural   Sr2CaMg2ZnAs3N
_chemical_formula_sum   'Sr4 Ca2 Mg4 Zn2 As6 N2'
_cell_volume   478.14711178
_cell_formula_units_Z   2
loop_
 _symmetry_equiv_pos_site_id
 _symmetry_equiv_pos_as_xyz
  1  'x, y, z'
  2  'x, -y, z'
  3  'x+1/2, y+1/2, z'
  4  'x+1/2, -y+1/2, z'
loop_
 _atom_site_type_symbol
 _atom_site_label
 _atom_site_symmetry_multiplicity
 _atom_site_fract_x
 _atom_site_fract_y
 _atom_site_fract_z
 _atom_site_occupancy
  Sr  Sr0  2  0.18181770  0.50000000  0.05439692  1
  Sr  Sr1  2  0.49136702  0.00000000  0.63404773  1
  Ca  Ca2  2  0.13021430  0.00000000  0.46523192  1
  Mg  Mg3  2  0.27920211  0.50000000  0.55948522  1
  Mg  Mg4  2  0.37166783  0.00000000  0.18062204  1
  Zn  Zn5  2  0.41278838  0.50000000  0.94401836  1
  As  As6  2  0.06345943  0.00000000  0.89317219  1
  As  As7  2  0.30560303  0.00000000  0.81851779  1
  As  As8  2  0.41536032  0.50000000  0.33943741  1
  N  N9  2  0.16202801  0.50000000  0.42090217  1
