# generated using pymatgen
data_Sr2Fe3O6F
_symmetry_space_group_name_H-M   Pm
_cell_length_a   5.63946056
_cell_length_b   3.84215564
_cell_length_c   8.09976384
_cell_angle_alpha   90.00000000
_cell_angle_beta   91.26069141
_cell_angle_gamma   90.00000000
_symmetry_Int_Tables_number   6
_chemical_formula_structural   Sr2Fe3O6F
_chemical_formula_sum   'Sr2 Fe3 O6 F1'
_cell_volume   175.46065043
_cell_formula_units_Z   1
loop_
 _symmetry_equiv_pos_site_id
 _symmetry_equiv_pos_as_xyz
  1  'x, y, z'
  2  'x, -y, z'
loop_
 _atom_site_type_symbol
 _atom_site_label
 _atom_site_symmetry_multiplicity
 _atom_site_fract_x
 _atom_site_fract_y
 _atom_site_fract_z
 _atom_site_occupancy
  Sr  Sr0  1  0.93445141  0.00000000  0.56604615  1
  Sr  Sr1  1  0.93879515  0.50000000  0.01166641  1
  Fe  Fe2  1  0.38990157  0.00000000  0.21785396  1
  Fe  Fe3  1  0.41456954  0.00000000  0.80421580  1
  Fe  Fe4  1  0.43248088  0.50000000  0.49241622  1
  O  O5  1  0.23762714  0.00000000  0.00238365  1
  O  O6  1  0.30206725  0.50000000  0.72635198  1
  O  O7  1  0.31068605  0.50000000  0.25101092  1
  O  O8  1  0.35461374  0.00000000  0.47546462  1
  O  O9  1  0.73550194  0.00000000  0.83370423  1
  O  O10  1  0.75237559  0.50000000  0.47729493  1
  F  F11  1  0.73166964  0.00000000  0.18227876  1
