# generated using pymatgen
data_Sr2HgICl3
_symmetry_space_group_name_H-M   Pm
_cell_length_a   4.25480307
_cell_length_b   4.34410157
_cell_length_c   15.00194819
_cell_angle_alpha   90.00000000
_cell_angle_beta   97.74053836
_cell_angle_gamma   90.00000000
_symmetry_Int_Tables_number   6
_chemical_formula_structural   Sr2HgICl3
_chemical_formula_sum   'Sr2 Hg1 I1 Cl3'
_cell_volume   274.75887654
_cell_formula_units_Z   1
loop_
 _symmetry_equiv_pos_site_id
 _symmetry_equiv_pos_as_xyz
  1  'x, y, z'
  2  'x, -y, z'
loop_
 _atom_site_type_symbol
 _atom_site_label
 _atom_site_symmetry_multiplicity
 _atom_site_fract_x
 _atom_site_fract_y
 _atom_site_fract_z
 _atom_site_occupancy
  Sr  Sr0  1  0.25699397  0.00000000  0.51085339  1
  Sr  Sr1  1  0.87314025  0.50000000  0.78599088  1
  Hg  Hg2  1  0.57716352  0.50000000  0.15065759  1
  I  I3  1  0.97388153  0.00000000  0.93893868  1
  Cl  Cl4  1  0.34961320  0.00000000  0.71754846  1
  Cl  Cl5  1  0.70059804  0.00000000  0.39096900  1
  Cl  Cl6  1  0.78552868  0.50000000  0.58046634  1
