# generated using pymatgen
data_Sr2Li2O3
_symmetry_space_group_name_H-M   C2/m
_cell_length_a   10.98330096
_cell_length_b   3.50071673
_cell_length_c   5.89584470
_cell_angle_alpha   90.00000000
_cell_angle_beta   121.21816949
_cell_angle_gamma   90.00000000
_symmetry_Int_Tables_number   12
_chemical_formula_structural   Sr2Li2O3
_chemical_formula_sum   'Sr4 Li4 O6'
_cell_volume   193.86684907
_cell_formula_units_Z   2
loop_
 _symmetry_equiv_pos_site_id
 _symmetry_equiv_pos_as_xyz
  1  'x, y, z'
  2  '-x, -y, -z'
  3  '-x, y, -z'
  4  'x, -y, z'
  5  'x+1/2, y+1/2, z'
  6  '-x+1/2, -y+1/2, -z'
  7  '-x+1/2, y+1/2, -z'
  8  'x+1/2, -y+1/2, z'
loop_
 _atom_site_type_symbol
 _atom_site_label
 _atom_site_symmetry_multiplicity
 _atom_site_fract_x
 _atom_site_fract_y
 _atom_site_fract_z
 _atom_site_occupancy
  Sr  Sr0  4  0.08648855  0.00000000  0.84189906  1
  Li  Li1  4  0.19401086  0.50000000  0.55097333  1
  O  O2  4  0.20354402  0.50000000  0.22068546  1
  O  O3  2  0.00000000  0.50000000  0.50000000  1
