# generated using pymatgen
data_Sr2LiHoCdTe5
_symmetry_space_group_name_H-M   R3m
_cell_length_a   5.36028240
_cell_length_b   5.36028240
_cell_length_c   38.65909077
_cell_angle_alpha   90.00000000
_cell_angle_beta   90.00000000
_cell_angle_gamma   120.00000000
_symmetry_Int_Tables_number   160
_chemical_formula_structural   Sr2LiHoCdTe5
_chemical_formula_sum   'Sr6 Li3 Ho3 Cd3 Te15'
_cell_volume   961.96131818
_cell_formula_units_Z   3
loop_
 _symmetry_equiv_pos_site_id
 _symmetry_equiv_pos_as_xyz
  1  'x, y, z'
  2  '-y, x-y, z'
  3  '-x+y, -x, z'
  4  '-y, -x, z'
  5  '-x+y, y, z'
  6  'x, x-y, z'
  7  'x+2/3, y+1/3, z+1/3'
  8  '-y+2/3, x-y+1/3, z+1/3'
  9  '-x+y+2/3, -x+1/3, z+1/3'
  10  '-y+2/3, -x+1/3, z+1/3'
  11  '-x+y+2/3, y+1/3, z+1/3'
  12  'x+2/3, x-y+1/3, z+1/3'
  13  'x+1/3, y+2/3, z+2/3'
  14  '-y+1/3, x-y+2/3, z+2/3'
  15  '-x+y+1/3, -x+2/3, z+2/3'
  16  '-y+1/3, -x+2/3, z+2/3'
  17  '-x+y+1/3, y+2/3, z+2/3'
  18  'x+1/3, x-y+2/3, z+2/3'
loop_
 _atom_site_type_symbol
 _atom_site_label
 _atom_site_symmetry_multiplicity
 _atom_site_fract_x
 _atom_site_fract_y
 _atom_site_fract_z
 _atom_site_occupancy
  Sr  Sr0  3  0.00000000  0.00000000  0.19490649  1
  Sr  Sr1  3  0.00000000  0.00000000  0.61647176  1
  Li  Li2  3  0.00000000  0.00000000  0.01278632  1
  Ho  Ho3  3  0.00000000  0.00000000  0.40335718  1
  Cd  Cd4  3  0.00000000  0.00000000  0.80194868  1
  Te  Te5  3  0.00000000  0.00000000  0.08587917  1
  Te  Te6  3  0.00000000  0.00000000  0.32232689  1
  Te  Te7  3  0.00000000  0.00000000  0.48592397  1
  Te  Te8  3  0.00000000  0.00000000  0.72420620  1
  Te  Te9  3  0.00000000  0.00000000  0.90534787  1
