# generated using pymatgen
data_Sr2YMg3HgAu
_symmetry_space_group_name_H-M   Cm
_cell_length_a   13.03688753
_cell_length_b   4.52806726
_cell_length_c   8.35405104
_cell_angle_alpha   90.00000000
_cell_angle_beta   108.35685581
_cell_angle_gamma   90.00000000
_symmetry_Int_Tables_number   8
_chemical_formula_structural   Sr2YMg3HgAu
_chemical_formula_sum   'Sr4 Y2 Mg6 Hg2 Au2'
_cell_volume   468.06054193
_cell_formula_units_Z   2
loop_
 _symmetry_equiv_pos_site_id
 _symmetry_equiv_pos_as_xyz
  1  'x, y, z'
  2  'x, -y, z'
  3  'x+1/2, y+1/2, z'
  4  'x+1/2, -y+1/2, z'
loop_
 _atom_site_type_symbol
 _atom_site_label
 _atom_site_symmetry_multiplicity
 _atom_site_fract_x
 _atom_site_fract_y
 _atom_site_fract_z
 _atom_site_occupancy
  Sr  Sr0  2  0.20889051  0.50000000  0.57384837  1
  Sr  Sr1  2  0.43747695  0.50000000  0.29626366  1
  Y  Y2  2  0.09835962  0.50000000  0.03670009  1
  Mg  Mg3  2  0.07507339  0.00000000  0.74054816  1
  Mg  Mg4  2  0.30866611  0.00000000  0.95602953  1
  Mg  Mg5  2  0.41703652  0.00000000  0.65218630  1
  Hg  Hg6  2  0.23300328  0.00000000  0.28360504  1
  Au  Au7  2  0.42915066  0.50000000  0.90853185  1
