# generated using pymatgen
data_Sr3SbO6
_symmetry_space_group_name_H-M   P-1
_cell_length_a   5.95915831
_cell_length_b   6.05922378
_cell_length_c   6.07497334
_cell_angle_alpha   61.46953816
_cell_angle_beta   61.23156753
_cell_angle_gamma   60.58259941
_symmetry_Int_Tables_number   2
_chemical_formula_structural   Sr3SbO6
_chemical_formula_sum   'Sr3 Sb1 O6'
_cell_volume   158.90899621
_cell_formula_units_Z   1
loop_
 _symmetry_equiv_pos_site_id
 _symmetry_equiv_pos_as_xyz
  1  'x, y, z'
  2  '-x, -y, -z'
loop_
 _atom_site_type_symbol
 _atom_site_label
 _atom_site_symmetry_multiplicity
 _atom_site_fract_x
 _atom_site_fract_y
 _atom_site_fract_z
 _atom_site_occupancy
  Sr  Sr0  2  0.27061696  0.74171856  0.21980211  1
  Sr  Sr1  1  0.50000000  0.00000000  0.50000000  1
  Sb  Sb2  1  0.00000000  0.50000000  0.00000000  1
  O  O3  2  0.16917824  0.19343928  0.85873750  1
  O  O4  2  0.23644662  0.69735840  0.66864201  1
  O  O5  2  0.28769592  0.33845014  0.16768380  1
