# generated using pymatgen
data_Sr4AcSi2ClO8
_symmetry_space_group_name_H-M   P1
_cell_length_a   5.48598421
_cell_length_b   5.48576178
_cell_length_c   9.70739044
_cell_angle_alpha   93.06103276
_cell_angle_beta   93.76296187
_cell_angle_gamma   91.47454378
_symmetry_Int_Tables_number   1
_chemical_formula_structural   Sr4AcSi2ClO8
_chemical_formula_sum   'Sr4 Ac1 Si2 Cl1 O8'
_cell_volume   290.97090495
_cell_formula_units_Z   1
loop_
 _symmetry_equiv_pos_site_id
 _symmetry_equiv_pos_as_xyz
  1  'x, y, z'
loop_
 _atom_site_type_symbol
 _atom_site_label
 _atom_site_symmetry_multiplicity
 _atom_site_fract_x
 _atom_site_fract_y
 _atom_site_fract_z
 _atom_site_occupancy
  Sr  Sr0  1  0.24542464  0.10555129  0.62140828  1
  Sr  Sr1  1  0.25485735  0.63748564  0.93475909  1
  Sr  Sr2  1  0.28094633  0.17483927  0.19128440  1
  Sr  Sr3  1  0.73230143  0.63920172  0.65411324  1
  Ac  Ac4  1  0.80836844  0.68156066  0.21367489  1
  Si  Si5  1  0.73851904  0.14652078  0.40680095  1
  Si  Si6  1  0.75522751  0.15760746  0.92394868  1
  Cl  Cl7  1  0.22915643  0.60358608  0.60450790  1
  O  O8  1  0.02831796  0.05977809  0.38156021  1
  O  O9  1  0.22074959  0.61495559  0.17209115  1
  O  O10  1  0.54100655  0.96923108  0.84110895  1
  O  O11  1  0.61089237  0.35676398  0.02523797  1
  O  O12  1  0.68685770  0.06043542  0.56633215  1
  O  O13  1  0.73713616  0.45531558  0.41769901  1
  O  O14  1  0.92716406  0.32637241  0.82621752  1
  O  O15  1  0.94106102  0.98088108  0.01663785  1
