# generated using pymatgen
data_Sr5IN4
_symmetry_space_group_name_H-M   P2/m
_cell_length_a   4.64844633
_cell_length_b   5.22260403
_cell_length_c   9.66897278
_cell_angle_alpha   90.00000000
_cell_angle_beta   99.93366298
_cell_angle_gamma   90.00000000
_symmetry_Int_Tables_number   10
_chemical_formula_structural   Sr5IN4
_chemical_formula_sum   'Sr5 I1 N4'
_cell_volume   231.21450685
_cell_formula_units_Z   1
loop_
 _symmetry_equiv_pos_site_id
 _symmetry_equiv_pos_as_xyz
  1  'x, y, z'
  2  '-x, -y, -z'
  3  '-x, y, -z'
  4  'x, -y, z'
loop_
 _atom_site_type_symbol
 _atom_site_label
 _atom_site_symmetry_multiplicity
 _atom_site_fract_x
 _atom_site_fract_y
 _atom_site_fract_z
 _atom_site_occupancy
  Sr  Sr0  2  0.12010543  0.00000000  0.35462229  1
  Sr  Sr1  2  0.43890269  0.50000000  0.68717941  1
  Sr  Sr2  1  0.50000000  0.00000000  0.00000000  1
  I  I3  1  0.00000000  0.50000000  0.00000000  1
  N  N4  2  0.09109399  0.50000000  0.45126629  1
  N  N5  2  0.42044701  0.00000000  0.74025381  1
