# generated using pymatgen
data_SrAcCdTeAu
_symmetry_space_group_name_H-M   Cm
_cell_length_a   12.43622404
_cell_length_b   4.72354070
_cell_length_c   5.77927301
_cell_angle_alpha   90.00000000
_cell_angle_beta   93.36588045
_cell_angle_gamma   90.00000000
_symmetry_Int_Tables_number   8
_chemical_formula_structural   SrAcCdTeAu
_chemical_formula_sum   'Sr2 Ac2 Cd2 Te2 Au2'
_cell_volume   338.90626024
_cell_formula_units_Z   2
loop_
 _symmetry_equiv_pos_site_id
 _symmetry_equiv_pos_as_xyz
  1  'x, y, z'
  2  'x, -y, z'
  3  'x+1/2, y+1/2, z'
  4  'x+1/2, -y+1/2, z'
loop_
 _atom_site_type_symbol
 _atom_site_label
 _atom_site_symmetry_multiplicity
 _atom_site_fract_x
 _atom_site_fract_y
 _atom_site_fract_z
 _atom_site_occupancy
  Sr  Sr0  2  0.05062482  0.00000000  0.77361759  1
  Ac  Ac1  2  0.28733492  0.50000000  0.26517904  1
  Cd  Cd2  2  0.33612498  0.00000000  0.75417901  1
  Te  Te3  2  0.49606656  0.00000000  0.25927839  1
  Au  Au4  2  0.22262958  0.50000000  0.76138358  1
