# generated using pymatgen
data_SrAcLaMg
_symmetry_space_group_name_H-M   P2/m
_cell_length_a   6.29389629
_cell_length_b   3.99542698
_cell_length_c   6.37700717
_cell_angle_alpha   90.00000000
_cell_angle_beta   103.77407134
_cell_angle_gamma   90.00000000
_symmetry_Int_Tables_number   10
_chemical_formula_structural   SrAcLaMg
_chemical_formula_sum   'Sr1 Ac1 La1 Mg1'
_cell_volume   155.74969187
_cell_formula_units_Z   1
loop_
 _symmetry_equiv_pos_site_id
 _symmetry_equiv_pos_as_xyz
  1  'x, y, z'
  2  '-x, -y, -z'
  3  '-x, y, -z'
  4  'x, -y, z'
loop_
 _atom_site_type_symbol
 _atom_site_label
 _atom_site_symmetry_multiplicity
 _atom_site_fract_x
 _atom_site_fract_y
 _atom_site_fract_z
 _atom_site_occupancy
  Sr  Sr0  1  0.50000000  0.50000000  0.50000000  1
  Ac  Ac1  1  0.00000000  0.50000000  0.00000000  1
  La  La2  1  0.50000000  0.00000000  0.00000000  1
  Mg  Mg3  1  0.00000000  0.00000000  0.50000000  1
