# generated using pymatgen
data_SrLiIO2
_symmetry_space_group_name_H-M   Cm
_cell_length_a   7.42971357
_cell_length_b   4.94554042
_cell_length_c   4.92704861
_cell_angle_alpha   90.00000000
_cell_angle_beta   92.15399701
_cell_angle_gamma   90.00000000
_symmetry_Int_Tables_number   8
_chemical_formula_structural   SrLiIO2
_chemical_formula_sum   'Sr2 Li2 I2 O4'
_cell_volume   180.91130220
_cell_formula_units_Z   2
loop_
 _symmetry_equiv_pos_site_id
 _symmetry_equiv_pos_as_xyz
  1  'x, y, z'
  2  'x, -y, z'
  3  'x+1/2, y+1/2, z'
  4  'x+1/2, -y+1/2, z'
loop_
 _atom_site_type_symbol
 _atom_site_label
 _atom_site_symmetry_multiplicity
 _atom_site_fract_x
 _atom_site_fract_y
 _atom_site_fract_z
 _atom_site_occupancy
  Sr  Sr0  2  0.05809754  0.00000000  0.29966488  1
  Li  Li1  2  0.25371503  0.50000000  0.79272689  1
  I  I2  2  0.38226192  0.00000000  0.82138965  1
  O  O3  2  0.03777083  0.00000000  0.79920425  1
  O  O4  2  0.21646158  0.50000000  0.28219460  1
