# generated using pymatgen
data_SrLiCr2Cl3O2F
_symmetry_space_group_name_H-M   P1
_cell_length_a   3.67292852
_cell_length_b   5.91048318
_cell_length_c   8.49786535
_cell_angle_alpha   85.61122872
_cell_angle_beta   89.37423677
_cell_angle_gamma   89.83368946
_symmetry_Int_Tables_number   1
_chemical_formula_structural   SrLiCr2Cl3O2F
_chemical_formula_sum   'Sr1 Li1 Cr2 Cl3 O2 F1'
_cell_volume   183.92600983
_cell_formula_units_Z   1
loop_
 _symmetry_equiv_pos_site_id
 _symmetry_equiv_pos_as_xyz
  1  'x, y, z'
loop_
 _atom_site_type_symbol
 _atom_site_label
 _atom_site_symmetry_multiplicity
 _atom_site_fract_x
 _atom_site_fract_y
 _atom_site_fract_z
 _atom_site_occupancy
  Sr  Sr0  1  0.09572790  0.44789216  0.44824408  1
  Li  Li1  1  0.11311598  0.71875462  0.97276305  1
  Cr  Cr2  1  0.59276970  0.91650273  0.57202965  1
  Cr  Cr3  1  0.60037512  0.01985779  0.22741525  1
  Cl  Cl4  1  0.08897994  0.04983063  0.73010394  1
  Cl  Cl5  1  0.10287289  0.29902409  0.11139810  1
  Cl  Cl6  1  0.58507379  0.56159423  0.73011231  1
  O  O7  1  0.59677672  0.75424854  0.39219973  1
  O  O8  1  0.59727731  0.18190298  0.42733988  1
  F  F9  1  0.60488636  0.81589116  0.04678601  1
