# generated using pymatgen
data_SrMg4HgCl12
_symmetry_space_group_name_H-M   P2
_cell_length_a   6.51081452
_cell_length_b   11.38548822
_cell_length_c   6.74520987
_cell_angle_alpha   90.00000000
_cell_angle_beta   106.61400358
_cell_angle_gamma   90.00000000
_symmetry_Int_Tables_number   3
_chemical_formula_structural   SrMg4HgCl12
_chemical_formula_sum   'Sr1 Mg4 Hg1 Cl12'
_cell_volume   479.14008938
_cell_formula_units_Z   1
loop_
 _symmetry_equiv_pos_site_id
 _symmetry_equiv_pos_as_xyz
  1  'x, y, z'
  2  '-x, y, -z'
loop_
 _atom_site_type_symbol
 _atom_site_label
 _atom_site_symmetry_multiplicity
 _atom_site_fract_x
 _atom_site_fract_y
 _atom_site_fract_z
 _atom_site_occupancy
  Sr  Sr0  1  0.00000000  0.89184092  0.00000000  1
  Mg  Mg1  1  0.00000000  0.08615907  0.50000000  1
  Mg  Mg2  1  0.00000000  0.41476553  0.50000000  1
  Mg  Mg3  1  0.50000000  0.57961367  0.50000000  1
  Mg  Mg4  1  0.50000000  0.91987087  0.50000000  1
  Hg  Hg5  1  0.50000000  0.40025321  0.00000000  1
  Cl  Cl6  2  0.20733508  0.25663112  0.72091992  1
  Cl  Cl7  2  0.24662817  0.56383830  0.72495983  1
  Cl  Cl8  2  0.24855351  0.06960438  0.27952827  1
  Cl  Cl9  2  0.25091580  0.94015076  0.72304051  1
  Cl  Cl10  2  0.26356562  0.43391990  0.26833693  1
  Cl  Cl11  2  0.29634629  0.74987821  0.29082631  1
