# generated using pymatgen
data_SrThO3
_symmetry_space_group_name_H-M   P3m1
_cell_length_a   3.94639112
_cell_length_b   3.94639112
_cell_length_c   6.13165887
_cell_angle_alpha   90.00000000
_cell_angle_beta   90.00000000
_cell_angle_gamma   120.00000000
_symmetry_Int_Tables_number   156
_chemical_formula_structural   SrThO3
_chemical_formula_sum   'Sr1 Th1 O3'
_cell_volume   82.70063938
_cell_formula_units_Z   1
loop_
 _symmetry_equiv_pos_site_id
 _symmetry_equiv_pos_as_xyz
  1  'x, y, z'
  2  '-y, x-y, z'
  3  '-x+y, -x, z'
  4  '-y, -x, z'
  5  '-x+y, y, z'
  6  'x, x-y, z'
loop_
 _atom_site_type_symbol
 _atom_site_label
 _atom_site_symmetry_multiplicity
 _atom_site_fract_x
 _atom_site_fract_y
 _atom_site_fract_z
 _atom_site_occupancy
  Sr  Sr0  1  0.00000000  0.00000000  0.05815577  1
  Th  Th1  1  0.66666667  0.33333333  0.55685934  1
  O  O2  1  0.00000000  0.00000000  0.47249020  1
  O  O3  1  0.33333333  0.66666667  0.75232515  1
  O  O4  1  0.66666667  0.33333333  0.19116660  1
