# generated using pymatgen
data_SrYbInCuPt
_symmetry_space_group_name_H-M   Cm
_cell_length_a   10.96119474
_cell_length_b   4.29684178
_cell_length_c   6.12651467
_cell_angle_alpha   90.00000000
_cell_angle_beta   123.34892697
_cell_angle_gamma   90.00000000
_symmetry_Int_Tables_number   8
_chemical_formula_structural   SrYbInCuPt
_chemical_formula_sum   'Sr2 Yb2 In2 Cu2 Pt2'
_cell_volume   241.03665365
_cell_formula_units_Z   2
loop_
 _symmetry_equiv_pos_site_id
 _symmetry_equiv_pos_as_xyz
  1  'x, y, z'
  2  'x, -y, z'
  3  'x+1/2, y+1/2, z'
  4  'x+1/2, -y+1/2, z'
loop_
 _atom_site_type_symbol
 _atom_site_label
 _atom_site_symmetry_multiplicity
 _atom_site_fract_x
 _atom_site_fract_y
 _atom_site_fract_z
 _atom_site_occupancy
  Sr  Sr0  2  0.16686116  0.00000000  0.22699377  1
  Yb  Yb1  2  0.26524677  0.50000000  0.82423963  1
  In  In2  2  0.46934973  0.50000000  0.53306614  1
  Cu  Cu3  2  0.46010457  0.00000000  0.24171335  1
  Pt  Pt4  2  0.45464291  0.00000000  0.81663476  1
