# generated using pymatgen
data_TaAl2ZnCdCu3O10
_symmetry_space_group_name_H-M   P1
_cell_length_a   5.17651418
_cell_length_b   5.66161365
_cell_length_c   8.15529370
_cell_angle_alpha   91.21041605
_cell_angle_beta   108.19338696
_cell_angle_gamma   116.47880508
_symmetry_Int_Tables_number   1
_chemical_formula_structural   TaAl2ZnCdCu3O10
_chemical_formula_sum   'Ta1 Al2 Zn1 Cd1 Cu3 O10'
_cell_volume   199.59758492
_cell_formula_units_Z   1
loop_
 _symmetry_equiv_pos_site_id
 _symmetry_equiv_pos_as_xyz
  1  'x, y, z'
loop_
 _atom_site_type_symbol
 _atom_site_label
 _atom_site_symmetry_multiplicity
 _atom_site_fract_x
 _atom_site_fract_y
 _atom_site_fract_z
 _atom_site_occupancy
  Ta  Ta0  1  0.36977630  0.28888660  0.51618128  1
  Al  Al1  1  0.15337775  0.28409577  0.10773336  1
  Al  Al2  1  0.76564302  0.90000964  0.66869423  1
  Zn  Zn3  1  0.51309497  0.15779206  0.91808714  1
  Cd  Cd4  1  0.94202958  0.63480411  0.35451366  1
  Cu  Cu5  1  0.14297463  0.55669145  0.79025704  1
  Cu  Cu6  1  0.53227424  0.87385431  0.25054148  1
  Cu  Cu7  1  0.82114081  0.72783460  0.00321161  1
  O  O8  1  0.05787455  0.02311093  0.89063194  1
  O  O9  1  0.27827230  0.51979269  0.32238383  1
  O  O10  1  0.31007365  0.08819502  0.29613203  1
  O  O11  1  0.42582476  0.59702510  0.68253876  1
  O  O12  1  0.53578005  0.08865126  0.66430952  1
  O  O13  1  0.54714563  0.45230724  0.09720824  1
  O  O14  1  0.74970451  0.01724831  0.09054068  1
  O  O15  1  0.82287598  0.60238205  0.58917938  1
  O  O16  1  0.95675012  0.08998762  0.52227427  1
  O  O17  1  0.98162576  0.48165960  0.96842361  1
