# generated using pymatgen
data_Tb2AgO3
_symmetry_space_group_name_H-M   P-1
_cell_length_a   4.49941447
_cell_length_b   4.59958725
_cell_length_c   9.50209106
_cell_angle_alpha   88.89185207
_cell_angle_beta   76.92689128
_cell_angle_gamma   89.97364367
_symmetry_Int_Tables_number   2
_chemical_formula_structural   Tb2AgO3
_chemical_formula_sum   'Tb4 Ag2 O6'
_cell_volume   191.51594267
_cell_formula_units_Z   2
loop_
 _symmetry_equiv_pos_site_id
 _symmetry_equiv_pos_as_xyz
  1  'x, y, z'
  2  '-x, -y, -z'
loop_
 _atom_site_type_symbol
 _atom_site_label
 _atom_site_symmetry_multiplicity
 _atom_site_fract_x
 _atom_site_fract_y
 _atom_site_fract_z
 _atom_site_occupancy
  Tb  Tb0  2  0.11081147  0.24126420  0.79664994  1
  Tb  Tb1  2  0.24376784  0.75030461  0.50959733  1
  Ag  Ag2  2  0.44783005  0.24991958  0.09327016  1
  O  O3  2  0.12949317  0.73680473  0.75414192  1
  O  O4  2  0.23256194  0.25052276  0.53451317  1
  O  O5  2  0.35794819  0.77418179  0.26762644  1
