# generated using pymatgen
data_Tb2MgInO4
_symmetry_space_group_name_H-M   Cm
_cell_length_a   7.03813463
_cell_length_b   9.06198638
_cell_length_c   4.85942802
_cell_angle_alpha   90.00000000
_cell_angle_beta   132.71580253
_cell_angle_gamma   90.00000000
_symmetry_Int_Tables_number   8
_chemical_formula_structural   Tb2MgInO4
_chemical_formula_sum   'Tb4 Mg2 In2 O8'
_cell_volume   227.71541953
_cell_formula_units_Z   2
loop_
 _symmetry_equiv_pos_site_id
 _symmetry_equiv_pos_as_xyz
  1  'x, y, z'
  2  'x, -y, z'
  3  'x+1/2, y+1/2, z'
  4  'x+1/2, -y+1/2, z'
loop_
 _atom_site_type_symbol
 _atom_site_label
 _atom_site_symmetry_multiplicity
 _atom_site_fract_x
 _atom_site_fract_y
 _atom_site_fract_z
 _atom_site_occupancy
  Tb  Tb0  4  0.40618124  0.25488670  0.16110116  1
  Mg  Mg1  2  0.35359377  0.50000000  0.57427230  1
  In  In2  2  0.35016333  0.00000000  0.60280046  1
  O  O3  4  0.43089740  0.28507347  0.68867102  1
  O  O4  2  0.26882497  0.50000000  0.06939900  1
  O  O5  2  0.47116896  0.00000000  0.26907661  1
