# generated using pymatgen
data_Tb2Te2C
_symmetry_space_group_name_H-M   P1
_cell_length_a   4.00651372
_cell_length_b   4.01845044
_cell_length_c   8.32276678
_cell_angle_alpha   89.17955570
_cell_angle_beta   89.72288638
_cell_angle_gamma   89.15191600
_symmetry_Int_Tables_number   1
_chemical_formula_structural   Tb2Te2C
_chemical_formula_sum   'Tb2 Te2 C1'
_cell_volume   133.96650419
_cell_formula_units_Z   1
loop_
 _symmetry_equiv_pos_site_id
 _symmetry_equiv_pos_as_xyz
  1  'x, y, z'
loop_
 _atom_site_type_symbol
 _atom_site_label
 _atom_site_symmetry_multiplicity
 _atom_site_fract_x
 _atom_site_fract_y
 _atom_site_fract_z
 _atom_site_occupancy
  Tb  Tb0  1  0.16404544  0.47338735  0.18403113  1
  Tb  Tb1  1  0.69154392  0.01584259  0.88550306  1
  Te  Te2  1  0.19255053  0.51986257  0.77961764  1
  Te  Te3  1  0.63376504  0.88587014  0.40081984  1
  C  C4  1  0.70318131  0.00888099  0.14967413  1
