# generated using pymatgen
data_TbCl2
_symmetry_space_group_name_H-M   P-1
_cell_length_a   3.39937324
_cell_length_b   3.39875720
_cell_length_c   7.01408635
_cell_angle_alpha   77.37378176
_cell_angle_beta   76.62645312
_cell_angle_gamma   89.95200674
_symmetry_Int_Tables_number   2
_chemical_formula_structural   TbCl2
_chemical_formula_sum   'Tb1 Cl2'
_cell_volume   76.82851706
_cell_formula_units_Z   1
loop_
 _symmetry_equiv_pos_site_id
 _symmetry_equiv_pos_as_xyz
  1  'x, y, z'
  2  '-x, -y, -z'
  3  'x+z, -y, -z'
  4  '-x-z, y, z'
loop_
 _atom_site_type_symbol
 _atom_site_label
 _atom_site_symmetry_multiplicity
 _atom_site_fract_x
 _atom_site_fract_y
 _atom_site_fract_z
 _atom_site_occupancy
  Tb  Tb0  1  0.50000000  0.00000000  0.00000000  1
  Cl  Cl1  2  0.11398960  0.60567110  0.76306940  1
