# generated using pymatgen
data_TbCuSe3
_symmetry_space_group_name_H-M   P4mm
_cell_length_a   3.71723648
_cell_length_b   3.71723648
_cell_length_c   7.72599055
_cell_angle_alpha   90.00000000
_cell_angle_beta   90.00000000
_cell_angle_gamma   90.00000000
_symmetry_Int_Tables_number   99
_chemical_formula_structural   TbCuSe3
_chemical_formula_sum   'Tb1 Cu1 Se3'
_cell_volume   106.75655591
_cell_formula_units_Z   1
loop_
 _symmetry_equiv_pos_site_id
 _symmetry_equiv_pos_as_xyz
  1  'x, y, z'
  2  '-y, x, z'
  3  '-x, -y, z'
  4  'y, -x, z'
  5  '-x, y, z'
  6  'y, x, z'
  7  'x, -y, z'
  8  '-y, -x, z'
loop_
 _atom_site_type_symbol
 _atom_site_label
 _atom_site_symmetry_multiplicity
 _atom_site_fract_x
 _atom_site_fract_y
 _atom_site_fract_z
 _atom_site_occupancy
  Tb  Tb0  1  0.00000000  0.00000000  0.91955755  1
  Cu  Cu1  1  0.50000000  0.50000000  0.43304518  1
  Se  Se2  1  0.00000000  0.00000000  0.46552762  1
  Se  Se3  1  0.50000000  0.50000000  0.11769621  1
  Se  Se4  1  0.50000000  0.50000000  0.74769902  1
