# generated using pymatgen
data_TbLuSb
_symmetry_space_group_name_H-M   Pmm2
_cell_length_a   4.43536630
_cell_length_b   4.45264004
_cell_length_c   8.38619922
_cell_angle_alpha   90.00000000
_cell_angle_beta   90.00000000
_cell_angle_gamma   90.00000000
_symmetry_Int_Tables_number   25
_chemical_formula_structural   TbLuSb
_chemical_formula_sum   'Tb2 Lu2 Sb2'
_cell_volume   165.61979943
_cell_formula_units_Z   2
loop_
 _symmetry_equiv_pos_site_id
 _symmetry_equiv_pos_as_xyz
  1  'x, y, z'
  2  '-x, -y, z'
  3  '-x, y, z'
  4  'x, -y, z'
loop_
 _atom_site_type_symbol
 _atom_site_label
 _atom_site_symmetry_multiplicity
 _atom_site_fract_x
 _atom_site_fract_y
 _atom_site_fract_z
 _atom_site_occupancy
  Tb  Tb0  1  0.50000000  0.00000000  0.71767887  1
  Tb  Tb1  1  0.50000000  0.50000000  0.06887531  1
  Lu  Lu2  1  0.00000000  0.00000000  0.37266473  1
  Lu  Lu3  1  0.00000000  0.50000000  0.71833536  1
  Sb  Sb4  1  0.00000000  0.00000000  0.00271257  1
  Sb  Sb5  1  0.50000000  0.50000000  0.43750441  1
