# generated using pymatgen
data_TbPdPtPbSe6
_symmetry_space_group_name_H-M   P1
_cell_length_a   5.13323303
_cell_length_b   6.19031777
_cell_length_c   7.82128222
_cell_angle_alpha   83.38044428
_cell_angle_beta   89.63650328
_cell_angle_gamma   89.38566448
_symmetry_Int_Tables_number   1
_chemical_formula_structural   TbPdPtPbSe6
_chemical_formula_sum   'Tb1 Pd1 Pt1 Pb1 Se6'
_cell_volume   246.85745397
_cell_formula_units_Z   1
loop_
 _symmetry_equiv_pos_site_id
 _symmetry_equiv_pos_as_xyz
  1  'x, y, z'
loop_
 _atom_site_type_symbol
 _atom_site_label
 _atom_site_symmetry_multiplicity
 _atom_site_fract_x
 _atom_site_fract_y
 _atom_site_fract_z
 _atom_site_occupancy
  Tb  Tb0  1  0.89628080  0.21315028  0.18170226  1
  Pd  Pd1  1  0.41015188  0.04725539  0.53094226  1
  Pt  Pt2  1  0.40712916  0.60460165  0.05216921  1
  Pb  Pb3  1  0.90899903  0.61055890  0.54144943  1
  Se  Se4  1  0.40203603  0.95507777  0.18481245  1
  Se  Se5  1  0.40538160  0.24496957  0.92587870  1
  Se  Se6  1  0.40863902  0.69644485  0.72961839  1
  Se  Se7  1  0.41501678  0.42836458  0.36033420  1
  Se  Se8  1  0.90726412  0.66926172  0.09962477  1
  Se  Se9  1  0.90988713  0.10380930  0.54479205  1
