# generated using pymatgen
data_TbSmAl2CdInNi
_symmetry_space_group_name_H-M   Cm
_cell_length_a   11.76299016
_cell_length_b   4.46318875
_cell_length_c   8.23934365
_cell_angle_alpha   90.00000000
_cell_angle_beta   134.16033311
_cell_angle_gamma   90.00000000
_symmetry_Int_Tables_number   8
_chemical_formula_structural   TbSmAl2CdInNi
_chemical_formula_sum   'Tb2 Sm2 Al4 Cd2 In2 Ni2'
_cell_volume   310.32216523
_cell_formula_units_Z   2
loop_
 _symmetry_equiv_pos_site_id
 _symmetry_equiv_pos_as_xyz
  1  'x, y, z'
  2  'x, -y, z'
  3  'x+1/2, y+1/2, z'
  4  'x+1/2, -y+1/2, z'
loop_
 _atom_site_type_symbol
 _atom_site_label
 _atom_site_symmetry_multiplicity
 _atom_site_fract_x
 _atom_site_fract_y
 _atom_site_fract_z
 _atom_site_occupancy
  Tb  Tb0  2  0.01165850  0.00000000  0.14937374  1
  Sm  Sm1  2  0.07793346  0.00000000  0.71056342  1
  Al  Al2  2  0.40054739  0.00000000  0.26834001  1
  Al  Al3  2  0.40856846  0.00000000  0.82366553  1
  Cd  Cd4  2  0.23043537  0.50000000  0.16927416  1
  In  In5  2  0.22969237  0.50000000  0.56345514  1
  Ni  Ni6  2  0.33122627  0.00000000  0.47578511  1
