# generated using pymatgen
data_TbYZn3Cd2Ga2Se9S
_symmetry_space_group_name_H-M   P1
_cell_length_a   6.03027395
_cell_length_b   7.33987813
_cell_length_c   12.11145430
_cell_angle_alpha   85.61822177
_cell_angle_beta   89.16711907
_cell_angle_gamma   65.91615879
_symmetry_Int_Tables_number   1
_chemical_formula_structural   TbYZn3Cd2Ga2Se9S
_chemical_formula_sum   'Tb1 Y1 Zn3 Cd2 Ga2 Se9 S1'
_cell_volume   487.89346369
_cell_formula_units_Z   1
loop_
 _symmetry_equiv_pos_site_id
 _symmetry_equiv_pos_as_xyz
  1  'x, y, z'
loop_
 _atom_site_type_symbol
 _atom_site_label
 _atom_site_symmetry_multiplicity
 _atom_site_fract_x
 _atom_site_fract_y
 _atom_site_fract_z
 _atom_site_occupancy
  Tb  Tb0  1  0.11989504  0.93103657  0.11133631  1
  Y  Y1  1  0.87069481  0.36955434  0.68522431  1
  Zn  Zn2  1  0.43752493  0.45291235  0.20939994  1
  Zn  Zn3  1  0.60112630  0.19865738  0.98128769  1
  Zn  Zn4  1  0.68820679  0.62944373  0.00242588  1
  Cd  Cd5  1  0.03195335  0.25732710  0.38301423  1
  Cd  Cd6  1  0.23384720  0.77606362  0.76102517  1
  Ga  Ga7  1  0.42639860  0.49641618  0.46850909  1
  Ga  Ga8  1  0.59926762  0.96340342  0.58177467  1
  Se  Se9  1  0.04049021  0.01574518  0.57379385  1
  Se  Se10  1  0.17761113  0.74061940  0.31928392  1
  Se  Se11  1  0.30670031  0.54178186  0.00569734  1
  Se  Se12  1  0.34387539  0.41392053  0.66335647  1
  Se  Se13  1  0.49820218  0.19800400  0.36839041  1
  Se  Se14  1  0.60631199  0.92664015  0.10972548  1
  Se  Se15  1  0.70746059  0.71846851  0.80499823  1
  Se  Se16  1  0.88312056  0.33897014  0.16184440  1
  Se  Se17  1  0.98952128  0.10878227  0.88686217  1
  S  S18  1  0.75511830  0.57363875  0.48500507  1
