# generated using pymatgen
data_TbZnGaAg
_symmetry_space_group_name_H-M   P1
_cell_length_a   3.75629281
_cell_length_b   4.89084426
_cell_length_c   5.02759980
_cell_angle_alpha   101.42827734
_cell_angle_beta   98.87476524
_cell_angle_gamma   101.98113051
_symmetry_Int_Tables_number   1
_chemical_formula_structural   TbZnGaAg
_chemical_formula_sum   'Tb1 Zn1 Ga1 Ag1'
_cell_volume   86.70217874
_cell_formula_units_Z   1
loop_
 _symmetry_equiv_pos_site_id
 _symmetry_equiv_pos_as_xyz
  1  'x, y, z'
loop_
 _atom_site_type_symbol
 _atom_site_label
 _atom_site_symmetry_multiplicity
 _atom_site_fract_x
 _atom_site_fract_y
 _atom_site_fract_z
 _atom_site_occupancy
  Tb  Tb0  1  0.86843397  0.82252626  0.54006445  1
  Zn  Zn1  1  0.16364373  0.32405443  0.29902037  1
  Ga  Ga2  1  0.51733932  0.00700663  0.04976490  1
  Ag  Ag3  1  0.37757724  0.45046581  0.84437331  1
