# generated using pymatgen
data_Th2Si3Sn2Pd3
_symmetry_space_group_name_H-M   Pmm2
_cell_length_a   4.08282158
_cell_length_b   4.25170403
_cell_length_c   12.05572332
_cell_angle_alpha   90.00000000
_cell_angle_beta   90.00000000
_cell_angle_gamma   90.00000000
_symmetry_Int_Tables_number   25
_chemical_formula_structural   Th2Si3Sn2Pd3
_chemical_formula_sum   'Th2 Si3 Sn2 Pd3'
_cell_volume   209.27468592
_cell_formula_units_Z   1
loop_
 _symmetry_equiv_pos_site_id
 _symmetry_equiv_pos_as_xyz
  1  'x, y, z'
  2  '-x, -y, z'
  3  '-x, y, z'
  4  'x, -y, z'
loop_
 _atom_site_type_symbol
 _atom_site_label
 _atom_site_symmetry_multiplicity
 _atom_site_fract_x
 _atom_site_fract_y
 _atom_site_fract_z
 _atom_site_occupancy
  Th  Th0  1  0.50000000  0.00000000  0.93120435  1
  Th  Th1  1  0.50000000  0.50000000  0.23834271  1
  Si  Si2  1  0.00000000  0.00000000  0.13332501  1
  Si  Si3  1  0.00000000  0.00000000  0.32909502  1
  Si  Si4  1  0.00000000  0.50000000  0.83709505  1
  Sn  Sn5  1  0.00000000  0.00000000  0.68374633  1
  Sn  Sn6  1  0.00000000  0.50000000  0.48854260  1
  Pd  Pd7  1  0.00000000  0.50000000  0.03574142  1
  Pd  Pd8  1  0.50000000  0.00000000  0.44179973  1
  Pd  Pd9  1  0.50000000  0.50000000  0.72298059  1
