# generated using pymatgen
data_Ti2CrAgPtSe2Br3
_symmetry_space_group_name_H-M   P2/m
_cell_length_a   5.16446798
_cell_length_b   3.63903875
_cell_length_c   13.43409502
_cell_angle_alpha   90.00000000
_cell_angle_beta   90.42106427
_cell_angle_gamma   90.00000000
_symmetry_Int_Tables_number   10
_chemical_formula_structural   Ti2CrAgPtSe2Br3
_chemical_formula_sum   'Ti2 Cr1 Ag1 Pt1 Se2 Br3'
_cell_volume   252.46952209
_cell_formula_units_Z   1
loop_
 _symmetry_equiv_pos_site_id
 _symmetry_equiv_pos_as_xyz
  1  'x, y, z'
  2  '-x, -y, -z'
  3  '-x, -y, z'
  4  'x, y, -z'
  5  '-x, y, -z'
  6  'x, -y, z'
  7  'x, -y, -z'
  8  '-x, y, z'
loop_
 _atom_site_type_symbol
 _atom_site_label
 _atom_site_symmetry_multiplicity
 _atom_site_fract_x
 _atom_site_fract_y
 _atom_site_fract_z
 _atom_site_occupancy
  Ti  Ti0  2  0.00201834  0.50000000  0.13599326  1
  Cr  Cr1  1  0.50000000  0.00000000  0.00000000  1
  Ag  Ag2  1  0.00000000  0.50000000  0.50000000  1
  Pt  Pt3  1  0.00000000  0.00000000  0.00000000  1
  Se  Se4  2  0.49589767  0.50000000  0.86957359  1
  Br  Br5  2  0.00168867  0.00000000  0.27525332  1
  Br  Br6  1  0.50000000  0.50000000  0.50000000  1
