# generated using pymatgen
data_Ti4B2RuRh3
_symmetry_space_group_name_H-M   P1
_cell_length_a   4.96284911
_cell_length_b   5.45519861
_cell_length_c   5.77549685
_cell_angle_alpha   80.11717432
_cell_angle_beta   80.24608843
_cell_angle_gamma   64.79692362
_symmetry_Int_Tables_number   1
_chemical_formula_structural   Ti4B2RuRh3
_chemical_formula_sum   'Ti4 B2 Ru1 Rh3'
_cell_volume   138.56123715
_cell_formula_units_Z   1
loop_
 _symmetry_equiv_pos_site_id
 _symmetry_equiv_pos_as_xyz
  1  'x, y, z'
loop_
 _atom_site_type_symbol
 _atom_site_label
 _atom_site_symmetry_multiplicity
 _atom_site_fract_x
 _atom_site_fract_y
 _atom_site_fract_z
 _atom_site_occupancy
  Ti  Ti0  1  0.07017997  0.75718927  0.18075954  1
  Ti  Ti1  1  0.12694385  0.63051812  0.69821198  1
  Ti  Ti2  1  0.69028239  0.31587046  0.32942256  1
  Ti  Ti3  1  0.72915974  0.19206184  0.84995684  1
  B  B4  1  0.25354551  0.94343560  0.80991177  1
  B  B5  1  0.54031868  0.01604542  0.22560367  1
  Ru  Ru6  1  0.17846985  0.24777776  0.02064942  1
  Rh  Rh7  1  0.17289508  0.22609173  0.50494110  1
  Rh  Rh8  1  0.62224102  0.70825909  0.00882134  1
  Rh  Rh9  1  0.63259126  0.72612612  0.52692599  1
