# generated using pymatgen
data_TiF3
_symmetry_space_group_name_H-M   C2/m
_cell_length_a   8.13112032
_cell_length_b   3.24739004
_cell_length_c   3.92675079
_cell_angle_alpha   90.00000000
_cell_angle_beta   103.59899631
_cell_angle_gamma   90.00000000
_symmetry_Int_Tables_number   12
_chemical_formula_structural   TiF3
_chemical_formula_sum   'Ti2 F6'
_cell_volume   100.77872560
_cell_formula_units_Z   2
loop_
 _symmetry_equiv_pos_site_id
 _symmetry_equiv_pos_as_xyz
  1  'x, y, z'
  2  '-x, -y, -z'
  3  '-x, y, -z'
  4  'x, -y, z'
  5  'x+1/2, y+1/2, z'
  6  '-x+1/2, -y+1/2, -z'
  7  '-x+1/2, y+1/2, -z'
  8  'x+1/2, -y+1/2, z'
loop_
 _atom_site_type_symbol
 _atom_site_label
 _atom_site_symmetry_multiplicity
 _atom_site_fract_x
 _atom_site_fract_y
 _atom_site_fract_z
 _atom_site_occupancy
  Ti  Ti0  2  0.00000000  0.50000000  0.00000000  1
  F  F1  4  0.15026056  0.00000000  0.10637619  1
  F  F2  2  0.00000000  0.50000000  0.50000000  1
