# generated using pymatgen
data_TlAgHg
_symmetry_space_group_name_H-M   P1
_cell_length_a   3.29370701
_cell_length_b   3.37003944
_cell_length_c   7.52001138
_cell_angle_alpha   82.19228251
_cell_angle_beta   82.21075118
_cell_angle_gamma   63.66455025
_symmetry_Int_Tables_number   1
_chemical_formula_structural   TlAgHg
_chemical_formula_sum   'Tl1 Ag1 Hg1'
_cell_volume   73.84796020
_cell_formula_units_Z   1
loop_
 _symmetry_equiv_pos_site_id
 _symmetry_equiv_pos_as_xyz
  1  'x, y, z'
loop_
 _atom_site_type_symbol
 _atom_site_label
 _atom_site_symmetry_multiplicity
 _atom_site_fract_x
 _atom_site_fract_y
 _atom_site_fract_z
 _atom_site_occupancy
  Tl  Tl0  1  0.63678445  0.63702492  0.92594300  1
  Ag  Ag1  1  0.92227829  0.92516068  0.25313508  1
  Hg  Hg2  1  0.18648165  0.21643711  0.55630829  1
