# generated using pymatgen
data_TlInI3
_symmetry_space_group_name_H-M   P1
_cell_length_a   5.65306607
_cell_length_b   6.63537251
_cell_length_c   7.45948703
_cell_angle_alpha   66.63609654
_cell_angle_beta   88.24707834
_cell_angle_gamma   89.33267639
_symmetry_Int_Tables_number   1
_chemical_formula_structural   TlInI3
_chemical_formula_sum   'Tl1 In1 I3'
_cell_volume   256.74374373
_cell_formula_units_Z   1
loop_
 _symmetry_equiv_pos_site_id
 _symmetry_equiv_pos_as_xyz
  1  'x, y, z'
loop_
 _atom_site_type_symbol
 _atom_site_label
 _atom_site_symmetry_multiplicity
 _atom_site_fract_x
 _atom_site_fract_y
 _atom_site_fract_z
 _atom_site_occupancy
  Tl  Tl0  1  0.81869189  0.81420746  0.46426334  1
  In  In1  1  0.34032314  0.55381240  0.16350359  1
  I  I2  1  0.32595806  0.44563736  0.58026752  1
  I  I3  1  0.33527648  0.10315296  0.18230256  1
  I  I4  1  0.84267723  0.68514344  0.04292266  1
