# generated using pymatgen
data_TlSe
_symmetry_space_group_name_H-M   P1
_cell_length_a   3.16027220
_cell_length_b   4.45898426
_cell_length_c   5.00945290
_cell_angle_alpha   70.30093319
_cell_angle_beta   81.05354295
_cell_angle_gamma   89.76412328
_symmetry_Int_Tables_number   1
_chemical_formula_structural   TlSe
_chemical_formula_sum   'Tl1 Se1'
_cell_volume   65.56279580
_cell_formula_units_Z   1
loop_
 _symmetry_equiv_pos_site_id
 _symmetry_equiv_pos_as_xyz
  1  'x, y, z'
loop_
 _atom_site_type_symbol
 _atom_site_label
 _atom_site_symmetry_multiplicity
 _atom_site_fract_x
 _atom_site_fract_y
 _atom_site_fract_z
 _atom_site_occupancy
  Tl  Tl0  1  0.81478424  0.41466373  0.13318971  1
  Se  Se1  1  0.42662255  0.05365461  0.78106150  1
