# generated using pymatgen
data_Tm2ZnFeCu
_symmetry_space_group_name_H-M   Imm2
_cell_length_a   4.07832040
_cell_length_b   8.19469858
_cell_length_c   5.46922437
_cell_angle_alpha   90.00000000
_cell_angle_beta   90.00000000
_cell_angle_gamma   90.00000000
_symmetry_Int_Tables_number   44
_chemical_formula_structural   Tm2ZnFeCu
_chemical_formula_sum   'Tm4 Zn2 Fe2 Cu2'
_cell_volume   182.78479493
_cell_formula_units_Z   2
loop_
 _symmetry_equiv_pos_site_id
 _symmetry_equiv_pos_as_xyz
  1  'x, y, z'
  2  '-x, -y, z'
  3  '-x, y, z'
  4  'x, -y, z'
  5  'x+1/2, y+1/2, z+1/2'
  6  '-x+1/2, -y+1/2, z+1/2'
  7  '-x+1/2, y+1/2, z+1/2'
  8  'x+1/2, -y+1/2, z+1/2'
loop_
 _atom_site_type_symbol
 _atom_site_label
 _atom_site_symmetry_multiplicity
 _atom_site_fract_x
 _atom_site_fract_y
 _atom_site_fract_z
 _atom_site_occupancy
  Tm  Tm0  4  0.00000000  0.29642016  0.48879172  1
  Zn  Zn1  2  0.00000000  0.50000000  0.96394689  1
  Fe  Fe2  2  0.00000000  0.00000000  0.19907035  1
  Cu  Cu3  2  0.00000000  0.00000000  0.75029970  1
