# generated using pymatgen
data_TmAl2
_symmetry_space_group_name_H-M   Imma
_cell_length_a   4.55081403
_cell_length_b   6.78139623
_cell_length_c   7.88622268
_cell_angle_alpha   90.00000000
_cell_angle_beta   90.00000000
_cell_angle_gamma   90.00000000
_symmetry_Int_Tables_number   74
_chemical_formula_structural   TmAl2
_chemical_formula_sum   'Tm4 Al8'
_cell_volume   243.37571761
_cell_formula_units_Z   4
loop_
 _symmetry_equiv_pos_site_id
 _symmetry_equiv_pos_as_xyz
  1  'x, y, z'
  2  '-x, -y, -z'
  3  '-x, -y+1/2, z'
  4  'x, y+1/2, -z'
  5  'x, -y, -z'
  6  '-x, y, z'
  7  '-x, y+1/2, -z'
  8  'x, -y+1/2, z'
  9  'x+1/2, y+1/2, z+1/2'
  10  '-x+1/2, -y+1/2, -z+1/2'
  11  '-x+1/2, -y, z+1/2'
  12  'x+1/2, y, -z+1/2'
  13  'x+1/2, -y+1/2, -z+1/2'
  14  '-x+1/2, y+1/2, z+1/2'
  15  '-x+1/2, y, -z+1/2'
  16  'x+1/2, -y, z+1/2'
loop_
 _atom_site_type_symbol
 _atom_site_label
 _atom_site_symmetry_multiplicity
 _atom_site_fract_x
 _atom_site_fract_y
 _atom_site_fract_z
 _atom_site_occupancy
  Tm  Tm0  4  0.00000000  0.25000000  0.50641560  1
  Al  Al1  8  0.00000000  0.00860915  0.16668573  1
