# generated using pymatgen
data_TmO2
_symmetry_space_group_name_H-M   C2/m
_cell_length_a   6.39829651
_cell_length_b   3.90435677
_cell_length_c   5.86766968
_cell_angle_alpha   90.00000000
_cell_angle_beta   100.47131598
_cell_angle_gamma   90.00000000
_symmetry_Int_Tables_number   12
_chemical_formula_structural   TmO2
_chemical_formula_sum   'Tm4 O8'
_cell_volume   144.14045145
_cell_formula_units_Z   4
loop_
 _symmetry_equiv_pos_site_id
 _symmetry_equiv_pos_as_xyz
  1  'x, y, z'
  2  '-x, -y, -z'
  3  '-x, y, -z'
  4  'x, -y, z'
  5  'x+1/2, y+1/2, z'
  6  '-x+1/2, -y+1/2, -z'
  7  '-x+1/2, y+1/2, -z'
  8  'x+1/2, -y+1/2, z'
loop_
 _atom_site_type_symbol
 _atom_site_label
 _atom_site_symmetry_multiplicity
 _atom_site_fract_x
 _atom_site_fract_y
 _atom_site_fract_z
 _atom_site_occupancy
  Tm  Tm0  4  0.19746252  0.00000000  0.23052245  1
  O  O1  4  0.08160591  0.50000000  0.41993054  1
  O  O2  4  0.15371769  0.00000000  0.85011765  1
