# generated using pymatgen
data_V2CrHgMoIN4
_symmetry_space_group_name_H-M   P1
_cell_length_a   4.04815184
_cell_length_b   4.08341695
_cell_length_c   9.44540772
_cell_angle_alpha   86.53513837
_cell_angle_beta   78.68544910
_cell_angle_gamma   88.77584014
_symmetry_Int_Tables_number   1
_chemical_formula_structural   V2CrHgMoIN4
_chemical_formula_sum   'V2 Cr1 Hg1 Mo1 I1 N4'
_cell_volume   152.81376537
_cell_formula_units_Z   1
loop_
 _symmetry_equiv_pos_site_id
 _symmetry_equiv_pos_as_xyz
  1  'x, y, z'
loop_
 _atom_site_type_symbol
 _atom_site_label
 _atom_site_symmetry_multiplicity
 _atom_site_fract_x
 _atom_site_fract_y
 _atom_site_fract_z
 _atom_site_occupancy
  V  V0  1  0.23410200  0.31654180  0.44512587  1
  V  V1  1  0.74113081  0.81419470  0.43550492  1
  Cr  Cr2  1  0.36234775  0.78977997  0.23831906  1
  Hg  Hg3  1  0.53658219  0.78560919  0.94090899  1
  Mo  Mo4  1  0.81030542  0.35330782  0.23987744  1
  I  I5  1  0.10296336  0.28798895  0.75873866  1
  N  N6  1  0.23239840  0.81066248  0.45643772  1
  N  N7  1  0.32124176  0.31042367  0.22092639  1
  N  N8  1  0.72855977  0.30980232  0.46006206  1
  N  N9  1  0.85661441  0.85420287  0.22411731  1
