# generated using pymatgen
data_V2ZnS4
_symmetry_space_group_name_H-M   Pmm2
_cell_length_a   3.44410014
_cell_length_b   4.67390621
_cell_length_c   8.12077670
_cell_angle_alpha   90.00000000
_cell_angle_beta   90.00000000
_cell_angle_gamma   90.00000000
_symmetry_Int_Tables_number   25
_chemical_formula_structural   V2ZnS4
_chemical_formula_sum   'V2 Zn1 S4'
_cell_volume   130.72339925
_cell_formula_units_Z   1
loop_
 _symmetry_equiv_pos_site_id
 _symmetry_equiv_pos_as_xyz
  1  'x, y, z'
  2  '-x, -y, z'
  3  '-x, y, z'
  4  'x, -y, z'
loop_
 _atom_site_type_symbol
 _atom_site_label
 _atom_site_symmetry_multiplicity
 _atom_site_fract_x
 _atom_site_fract_y
 _atom_site_fract_z
 _atom_site_occupancy
  V  V0  1  0.00000000  0.00000000  0.66243169  1
  V  V1  1  0.50000000  0.50000000  0.93391462  1
  Zn  Zn2  1  0.00000000  0.00000000  0.25507324  1
  S  S3  1  0.00000000  0.50000000  0.14362502  1
  S  S4  1  0.00000000  0.50000000  0.71844425  1
  S  S5  1  0.50000000  0.00000000  0.45450071  1
  S  S6  1  0.50000000  0.00000000  0.88138632  1
