# generated using pymatgen
data_V3S4
_symmetry_space_group_name_H-M   P2_1/m
_cell_length_a   5.17373581
_cell_length_b   3.22750415
_cell_length_c   13.69089394
_cell_angle_alpha   90.00000000
_cell_angle_beta   92.13030471
_cell_angle_gamma   90.00000000
_symmetry_Int_Tables_number   11
_chemical_formula_structural   V3S4
_chemical_formula_sum   'V6 S8'
_cell_volume   228.45602079
_cell_formula_units_Z   2
loop_
 _symmetry_equiv_pos_site_id
 _symmetry_equiv_pos_as_xyz
  1  'x, y, z'
  2  '-x, -y, -z'
  3  '-x, y+1/2, -z'
  4  'x, -y+1/2, z'
loop_
 _atom_site_type_symbol
 _atom_site_label
 _atom_site_symmetry_multiplicity
 _atom_site_fract_x
 _atom_site_fract_y
 _atom_site_fract_z
 _atom_site_occupancy
  V  V0  2  0.16258628  0.75000000  0.05547844  1
  V  V1  2  0.16768719  0.75000000  0.30190165  1
  V  V2  2  0.17635549  0.75000000  0.55172900  1
  S  S3  2  0.25780583  0.25000000  0.18516964  1
  S  S4  2  0.26554574  0.25000000  0.67565038  1
  S  S5  2  0.28283743  0.25000000  0.94369849  1
  S  S6  2  0.28950270  0.25000000  0.43257329  1
