# generated using pymatgen
data_VCd2NiO6
_symmetry_space_group_name_H-M   Cm
_cell_length_a   7.58167774
_cell_length_b   7.17968916
_cell_length_c   5.28217341
_cell_angle_alpha   90.00000000
_cell_angle_beta   103.11877322
_cell_angle_gamma   90.00000000
_symmetry_Int_Tables_number   8
_chemical_formula_structural   VCd2NiO6
_chemical_formula_sum   'V2 Cd4 Ni2 O12'
_cell_volume   280.02623415
_cell_formula_units_Z   2
loop_
 _symmetry_equiv_pos_site_id
 _symmetry_equiv_pos_as_xyz
  1  'x, y, z'
  2  'x, -y, z'
  3  'x+1/2, y+1/2, z'
  4  'x+1/2, -y+1/2, z'
loop_
 _atom_site_type_symbol
 _atom_site_label
 _atom_site_symmetry_multiplicity
 _atom_site_fract_x
 _atom_site_fract_y
 _atom_site_fract_z
 _atom_site_occupancy
  V  V0  2  0.32198224  0.50000000  0.23105563  1
  Cd  Cd1  4  0.12723414  0.24775087  0.63866168  1
  Ni  Ni2  2  0.31599596  0.00000000  0.22003797  1
  O  O3  4  0.33585484  0.26582265  0.38293484  1
  O  O4  2  0.05390561  0.00000000  0.24643353  1
  O  O5  2  0.08691809  0.50000000  0.35998758  1
  O  O6  2  0.22084580  0.50000000  0.90518744  1
  O  O7  2  0.24479108  0.00000000  0.84293495  1
