# generated using pymatgen
data_VCo7As
_symmetry_space_group_name_H-M   P1
_cell_length_a   4.35767187
_cell_length_b   4.35817752
_cell_length_c   5.60867337
_cell_angle_alpha   83.04414570
_cell_angle_beta   75.26854285
_cell_angle_gamma   80.42369154
_symmetry_Int_Tables_number   1
_chemical_formula_structural   VCo7As
_chemical_formula_sum   'V1 Co7 As1'
_cell_volume   101.23284760
_cell_formula_units_Z   1
loop_
 _symmetry_equiv_pos_site_id
 _symmetry_equiv_pos_as_xyz
  1  'x, y, z'
loop_
 _atom_site_type_symbol
 _atom_site_label
 _atom_site_symmetry_multiplicity
 _atom_site_fract_x
 _atom_site_fract_y
 _atom_site_fract_z
 _atom_site_occupancy
  V  V0  1  0.91771791  0.51426765  0.98616623  1
  Co  Co1  1  0.14923984  0.96948934  0.08478516  1
  Co  Co2  1  0.26128148  0.18768616  0.65088816  1
  Co  Co3  1  0.37588721  0.40037873  0.19947968  1
  Co  Co4  1  0.46960106  0.63128135  0.76139269  1
  Co  Co5  1  0.58761714  0.85869773  0.30716073  1
  Co  Co6  1  0.68762315  0.07982775  0.87571708  1
  Co  Co7  1  0.80446873  0.30014152  0.42604677  1
  As  As8  1  0.03351526  0.75296153  0.52032445  1
