# generated using pymatgen
data_VGeO3F
_symmetry_space_group_name_H-M   Cm
_cell_length_a   10.32080574
_cell_length_b   3.15110536
_cell_length_c   5.05351102
_cell_angle_alpha   90.00000000
_cell_angle_beta   105.74781588
_cell_angle_gamma   90.00000000
_symmetry_Int_Tables_number   8
_chemical_formula_structural   VGeO3F
_chemical_formula_sum   'V2 Ge2 O6 F2'
_cell_volume   158.18123195
_cell_formula_units_Z   2
loop_
 _symmetry_equiv_pos_site_id
 _symmetry_equiv_pos_as_xyz
  1  'x, y, z'
  2  'x, -y, z'
  3  'x+1/2, y+1/2, z'
  4  'x+1/2, -y+1/2, z'
loop_
 _atom_site_type_symbol
 _atom_site_label
 _atom_site_symmetry_multiplicity
 _atom_site_fract_x
 _atom_site_fract_y
 _atom_site_fract_z
 _atom_site_occupancy
  V  V0  2  0.25397820  0.50000000  0.33069544  1
  Ge  Ge1  2  0.12388020  0.00000000  0.82486125  1
  O  O2  2  0.08574669  0.50000000  0.97419917  1
  O  O3  2  0.18265183  0.00000000  0.52820954  1
  O  O4  2  0.28526038  0.00000000  0.11536975  1
  F  F5  2  0.43882115  0.50000000  0.60115408  1
