# generated using pymatgen
data_Yb2PrY2MnGaPb2N
_symmetry_space_group_name_H-M   P1
_cell_length_a   6.56338692
_cell_length_b   6.62849152
_cell_length_c   7.07000653
_cell_angle_alpha   70.66371982
_cell_angle_beta   66.45737222
_cell_angle_gamma   63.99581611
_symmetry_Int_Tables_number   1
_chemical_formula_structural   Yb2PrY2MnGaPb2N
_chemical_formula_sum   'Yb2 Pr1 Y2 Mn1 Ga1 Pb2 N1'
_cell_volume   248.85071719
_cell_formula_units_Z   1
loop_
 _symmetry_equiv_pos_site_id
 _symmetry_equiv_pos_as_xyz
  1  'x, y, z'
loop_
 _atom_site_type_symbol
 _atom_site_label
 _atom_site_symmetry_multiplicity
 _atom_site_fract_x
 _atom_site_fract_y
 _atom_site_fract_z
 _atom_site_occupancy
  Yb  Yb0  1  0.15498763  0.25349239  0.19898139  1
  Yb  Yb1  1  0.51881156  0.72101911  0.35014566  1
  Pr  Pr2  1  0.74324362  0.05965406  0.80421533  1
  Y  Y3  1  0.24758263  0.17300540  0.71983343  1
  Y  Y4  1  0.61762318  0.58336749  0.90259796  1
  Mn  Mn5  1  0.13927616  0.85934845  0.06243102  1
  Ga  Ga6  1  0.18639663  0.62550056  0.83201596  1
  Pb  Pb7  1  0.67063595  0.16230578  0.28542774  1
  Pb  Pb8  1  0.99882427  0.67035364  0.46229975  1
  N  N9  1  0.40340272  0.93797273  0.00419220  1
