# generated using pymatgen
data_Yb3Al5Ga
_symmetry_space_group_name_H-M   R3
_cell_length_a   7.96816222
_cell_length_b   7.96816222
_cell_length_c   10.81819557
_cell_angle_alpha   90.00000000
_cell_angle_beta   90.00000000
_cell_angle_gamma   120.00000000
_symmetry_Int_Tables_number   146
_chemical_formula_structural   Yb3Al5Ga
_chemical_formula_sum   'Yb9 Al15 Ga3'
_cell_volume   594.84223123
_cell_formula_units_Z   3
loop_
 _symmetry_equiv_pos_site_id
 _symmetry_equiv_pos_as_xyz
  1  'x, y, z'
  2  '-y, x-y, z'
  3  '-x+y, -x, z'
  4  'y, x, -z+182/409'
  5  'x-y, -y, -z+182/409'
  6  '-x, -x+y, -z+182/409'
  7  'x+2/3, y+1/3, z+1/3'
  8  '-y+2/3, x-y+1/3, z+1/3'
  9  '-x+y+2/3, -x+1/3, z+1/3'
  10  'y+2/3, x+1/3, -z+639/821'
  11  'x-y+2/3, -y+1/3, -z+639/821'
  12  '-x+2/3, -x+y+1/3, -z+639/821'
  13  'x+1/3, y+2/3, z+2/3'
  14  '-y+1/3, x-y+2/3, z+2/3'
  15  '-x+y+1/3, -x+2/3, z+2/3'
  16  'y+1/3, x+2/3, -z+23/206'
  17  'x-y+1/3, -y+2/3, -z+23/206'
  18  '-x+1/3, -x+y+2/3, -z+23/206'
loop_
 _atom_site_type_symbol
 _atom_site_label
 _atom_site_symmetry_multiplicity
 _atom_site_fract_x
 _atom_site_fract_y
 _atom_site_fract_z
 _atom_site_occupancy
  Yb  Yb0  9  0.00101478  0.34259519  0.71857970  1
  Al  Al1  9  0.00082549  0.66745354  0.55358698  1
  Al  Al2  6  0.00000000  0.00000000  0.57272102  1
  Ga  Ga3  3  0.00000000  0.00000000  0.22249296  1
