# generated using pymatgen
data_YbAgF2
_symmetry_space_group_name_H-M   P-1
_cell_length_a   4.31517280
_cell_length_b   4.48083638
_cell_length_c   6.39603215
_cell_angle_alpha   88.65492869
_cell_angle_beta   87.94496826
_cell_angle_gamma   89.84592839
_symmetry_Int_Tables_number   2
_chemical_formula_structural   YbAgF2
_chemical_formula_sum   'Yb2 Ag2 F4'
_cell_volume   123.55720616
_cell_formula_units_Z   2
loop_
 _symmetry_equiv_pos_site_id
 _symmetry_equiv_pos_as_xyz
  1  'x, y, z'
  2  '-x, -y, -z'
loop_
 _atom_site_type_symbol
 _atom_site_label
 _atom_site_symmetry_multiplicity
 _atom_site_fract_x
 _atom_site_fract_y
 _atom_site_fract_z
 _atom_site_occupancy
  Yb  Yb0  2  0.01207897  0.75315851  0.79824243  1
  Ag  Ag1  2  0.48290294  0.74960865  0.38081725  1
  F  F2  2  0.00556235  0.25336700  0.85623007  1
  F  F3  2  0.48975302  0.23926455  0.14721276  1
