# generated using pymatgen
data_YbGa4
_symmetry_space_group_name_H-M   C2/m
_cell_length_a   6.16365127
_cell_length_b   6.11209625
_cell_length_c   6.08497948
_cell_angle_alpha   90.00000000
_cell_angle_beta   118.79952673
_cell_angle_gamma   90.00000000
_symmetry_Int_Tables_number   12
_chemical_formula_structural   YbGa4
_chemical_formula_sum   'Yb2 Ga8'
_cell_volume   200.88405049
_cell_formula_units_Z   2
loop_
 _symmetry_equiv_pos_site_id
 _symmetry_equiv_pos_as_xyz
  1  'x, y, z'
  2  '-x, -y, -z'
  3  '-x, y, -z'
  4  'x, -y, z'
  5  'x+1/2, y+1/2, z'
  6  '-x+1/2, -y+1/2, -z'
  7  '-x+1/2, y+1/2, -z'
  8  'x+1/2, -y+1/2, z'
loop_
 _atom_site_type_symbol
 _atom_site_label
 _atom_site_symmetry_multiplicity
 _atom_site_fract_x
 _atom_site_fract_y
 _atom_site_fract_z
 _atom_site_occupancy
  Yb  Yb0  2  0.00000000  0.50000000  0.00000000  1
  Ga  Ga1  4  0.00000000  0.27512950  0.50000000  1
  Ga  Ga2  4  0.08608728  0.00000000  0.22910014  1
