# generated using pymatgen
data_YbTi2H2S2O
_symmetry_space_group_name_H-M   Cm
_cell_length_a   8.66766681
_cell_length_b   3.42628514
_cell_length_c   7.43634203
_cell_angle_alpha   90.00000000
_cell_angle_beta   116.27875830
_cell_angle_gamma   90.00000000
_symmetry_Int_Tables_number   8
_chemical_formula_structural   YbTi2H2S2O
_chemical_formula_sum   'Yb2 Ti4 H4 S4 O2'
_cell_volume   198.01966727
_cell_formula_units_Z   2
loop_
 _symmetry_equiv_pos_site_id
 _symmetry_equiv_pos_as_xyz
  1  'x, y, z'
  2  'x, -y, z'
  3  'x+1/2, y+1/2, z'
  4  'x+1/2, -y+1/2, z'
loop_
 _atom_site_type_symbol
 _atom_site_label
 _atom_site_symmetry_multiplicity
 _atom_site_fract_x
 _atom_site_fract_y
 _atom_site_fract_z
 _atom_site_occupancy
  Yb  Yb0  2  0.36609377  0.50000000  0.60130918  1
  Ti  Ti1  2  0.18382259  0.50000000  0.88640567  1
  Ti  Ti2  2  0.45929746  0.00000000  0.28693162  1
  H  H3  2  0.10434594  0.00000000  0.88713768  1
  H  H4  2  0.34261417  0.50000000  0.19445098  1
  S  S5  2  0.17184359  0.00000000  0.30870784  1
  S  S6  2  0.40210377  0.00000000  0.91782482  1
  O  O7  2  0.06362777  0.50000000  0.59727817  1
