# generated using pymatgen
data_YCu7S7I
_symmetry_space_group_name_H-M   P4mm
_cell_length_a   4.58566921
_cell_length_b   4.58566921
_cell_length_c   13.50008189
_cell_angle_alpha   90.00000000
_cell_angle_beta   90.00000000
_cell_angle_gamma   90.00000000
_symmetry_Int_Tables_number   99
_chemical_formula_structural   YCu7S7I
_chemical_formula_sum   'Y1 Cu7 S7 I1'
_cell_volume   283.88461007
_cell_formula_units_Z   1
loop_
 _symmetry_equiv_pos_site_id
 _symmetry_equiv_pos_as_xyz
  1  'x, y, z'
  2  '-y, x, z'
  3  '-x, -y, z'
  4  'y, -x, z'
  5  '-x, y, z'
  6  'y, x, z'
  7  'x, -y, z'
  8  '-y, -x, z'
loop_
 _atom_site_type_symbol
 _atom_site_label
 _atom_site_symmetry_multiplicity
 _atom_site_fract_x
 _atom_site_fract_y
 _atom_site_fract_z
 _atom_site_occupancy
  Y  Y0  1  0.50000000  0.50000000  0.10224716  1
  Cu  Cu1  2  0.00000000  0.50000000  0.37272644  1
  Cu  Cu2  2  0.00000000  0.50000000  0.80910282  1
  Cu  Cu3  1  0.00000000  0.00000000  0.58137450  1
  Cu  Cu4  1  0.00000000  0.00000000  0.95174866  1
  Cu  Cu5  1  0.50000000  0.50000000  0.59265546  1
  S  S6  2  0.00000000  0.50000000  0.54046325  1
  S  S7  2  0.00000000  0.50000000  0.98794558  1
  S  S8  1  0.00000000  0.00000000  0.75877840  1
  S  S9  1  0.50000000  0.50000000  0.31871732  1
  S  S10  1  0.50000000  0.50000000  0.76577795  1
  I  I11  1  0.00000000  0.00000000  0.20217852  1
