# generated using pymatgen
data_Zn3B3O8
_symmetry_space_group_name_H-M   P-1
_cell_length_a   4.72429169
_cell_length_b   4.98798700
_cell_length_c   7.56544927
_cell_angle_alpha   78.63269681
_cell_angle_beta   72.64875338
_cell_angle_gamma   75.45193285
_symmetry_Int_Tables_number   2
_chemical_formula_structural   Zn3B3O8
_chemical_formula_sum   'Zn3 B3 O8'
_cell_volume   163.26225124
_cell_formula_units_Z   1
loop_
 _symmetry_equiv_pos_site_id
 _symmetry_equiv_pos_as_xyz
  1  'x, y, z'
  2  '-x, -y, -z'
loop_
 _atom_site_type_symbol
 _atom_site_label
 _atom_site_symmetry_multiplicity
 _atom_site_fract_x
 _atom_site_fract_y
 _atom_site_fract_z
 _atom_site_occupancy
  Zn  Zn0  2  0.44219700  0.96358749  0.81959531  1
  Zn  Zn1  1  0.50000000  0.50000000  0.50000000  1
  B  B2  2  0.14583171  0.63966269  0.20845022  1
  B  B3  1  0.00000000  0.00000000  0.50000000  1
  O  O4  2  0.16528092  0.31207056  0.73653215  1
  O  O5  2  0.27495618  0.88053785  0.48135400  1
  O  O6  2  0.28421003  0.84979501  0.09438268  1
  O  O7  2  0.32236244  0.39944974  0.27977793  1
