# generated using pymatgen
data_ZnIn3NiTe8Ru
_symmetry_space_group_name_H-M   P1
_cell_length_a   5.77440800
_cell_length_b   7.18668175
_cell_length_c   9.97820238
_cell_angle_alpha   93.96653941
_cell_angle_beta   106.79774757
_cell_angle_gamma   90.28429859
_symmetry_Int_Tables_number   1
_chemical_formula_structural   ZnIn3NiTe8Ru
_chemical_formula_sum   'Zn1 In3 Ni1 Te8 Ru1'
_cell_volume   395.33058134
_cell_formula_units_Z   1
loop_
 _symmetry_equiv_pos_site_id
 _symmetry_equiv_pos_as_xyz
  1  'x, y, z'
loop_
 _atom_site_type_symbol
 _atom_site_label
 _atom_site_symmetry_multiplicity
 _atom_site_fract_x
 _atom_site_fract_y
 _atom_site_fract_z
 _atom_site_occupancy
  Zn  Zn0  1  0.57736462  0.84844740  0.00404208  1
  In  In1  1  0.13354800  0.43023949  0.09065617  1
  In  In2  1  0.24897185  0.04981765  0.31876402  1
  In  In3  1  0.39176268  0.93152558  0.61117026  1
  Ni  Ni4  1  0.03914449  0.19868220  0.87073775  1
  Te  Te5  1  0.09430825  0.92228167  0.02063133  1
  Te  Te6  1  0.29282709  0.46500101  0.40448365  1
  Te  Te7  1  0.47028220  0.59902259  0.76853146  1
  Te  Te8  1  0.51821843  0.16486616  0.86982902  1
  Te  Te9  1  0.67292346  0.55373346  0.16570116  1
  Te  Te10  1  0.75851755  0.14276157  0.33857742  1
  Te  Te11  1  0.85516346  0.84946034  0.53568229  1
  Te  Te12  1  0.95551766  0.47196844  0.72010951  1
  Ru  Ru13  1  0.80848878  0.49263355  0.43634301  1
