# generated using pymatgen
data_Zr2TiCuSe6
_symmetry_space_group_name_H-M   P1
_cell_length_a   3.77221109
_cell_length_b   5.37788913
_cell_length_c   12.06311227
_cell_angle_alpha   89.56889979
_cell_angle_beta   89.56423567
_cell_angle_gamma   89.93552889
_symmetry_Int_Tables_number   1
_chemical_formula_structural   Zr2TiCuSe6
_chemical_formula_sum   'Zr2 Ti1 Cu1 Se6'
_cell_volume   244.70458097
_cell_formula_units_Z   1
loop_
 _symmetry_equiv_pos_site_id
 _symmetry_equiv_pos_as_xyz
  1  'x, y, z'
loop_
 _atom_site_type_symbol
 _atom_site_label
 _atom_site_symmetry_multiplicity
 _atom_site_fract_x
 _atom_site_fract_y
 _atom_site_fract_z
 _atom_site_occupancy
  Zr  Zr0  1  0.80855290  0.88995550  0.93329250  1
  Zr  Zr1  1  0.81536558  0.91580200  0.58159954  1
  Ti  Ti2  1  0.30075121  0.38026018  0.09091618  1
  Cu  Cu3  1  0.31295358  0.26747787  0.69109769  1
  Se  Se4  1  0.30444344  0.88186640  0.09395891  1
  Se  Se5  1  0.31191595  0.85501926  0.76603374  1
  Se  Se6  1  0.31879051  0.88377260  0.43842462  1
  Se  Se7  1  0.79933241  0.37952102  0.22055228  1
  Se  Se8  1  0.80683271  0.38680526  0.92351010  1
  Se  Se9  1  0.81488770  0.40437354  0.59136467  1
