# generated using pymatgen
data_Zr5Tl2In3
_symmetry_space_group_name_H-M   P1
_cell_length_a   6.15722012
_cell_length_b   6.41189309
_cell_length_c   12.03326416
_cell_angle_alpha   87.29296357
_cell_angle_beta   88.10052731
_cell_angle_gamma   73.69930923
_symmetry_Int_Tables_number   1
_chemical_formula_structural   Zr5Tl2In3
_chemical_formula_sum   'Zr10 Tl4 In6'
_cell_volume   455.36287999
_cell_formula_units_Z   2
loop_
 _symmetry_equiv_pos_site_id
 _symmetry_equiv_pos_as_xyz
  1  'x, y, z'
loop_
 _atom_site_type_symbol
 _atom_site_label
 _atom_site_symmetry_multiplicity
 _atom_site_fract_x
 _atom_site_fract_y
 _atom_site_fract_z
 _atom_site_occupancy
  Zr  Zr0  1  0.05212863  0.47748733  0.58336062  1
  Zr  Zr1  1  0.09686404  0.67078515  0.13138683  1
  Zr  Zr2  1  0.25419851  0.67874343  0.78381729  1
  Zr  Zr3  1  0.29819719  0.87191624  0.33102905  1
  Zr  Zr4  1  0.45352325  0.88059047  0.98423092  1
  Zr  Zr5  1  0.49833499  0.06744278  0.52978503  1
  Zr  Zr6  1  0.65248365  0.07868029  0.18487652  1
  Zr  Zr7  1  0.69753308  0.26932601  0.73055506  1
  Zr  Zr8  1  0.85116125  0.27727231  0.38427694  1
  Zr  Zr9  1  0.89798216  0.46995869  0.93105500  1
  Tl  Tl10  1  0.10895849  0.17518995  0.14082014  1
  Tl  Tl11  1  0.50596593  0.57022513  0.53798376  1
  Tl  Tl12  1  0.70875764  0.77194323  0.73905277  1
  Tl  Tl13  1  0.90958632  0.97281846  0.93950100  1
  In  In14  1  0.04080691  0.97718696  0.57435370  1
  In  In15  1  0.24094355  0.17870271  0.77393784  1
  In  In16  1  0.30730547  0.37359464  0.33997729  1
  In  In17  1  0.44121787  0.37962319  0.97429427  1
  In  In18  1  0.63763695  0.57755188  0.17481172  1
  In  In19  1  0.84450780  0.77420877  0.37340967  1
