# generated using pymatgen
data_ZrO
_symmetry_space_group_name_H-M   P1
_cell_length_a   3.18193361
_cell_length_b   3.54236269
_cell_length_c   3.54972429
_cell_angle_alpha   60.86310774
_cell_angle_beta   88.64384656
_cell_angle_gamma   86.60778709
_symmetry_Int_Tables_number   1
_chemical_formula_structural   ZrO
_chemical_formula_sum   'Zr1 O1'
_cell_volume   34.88607219
_cell_formula_units_Z   1
loop_
 _symmetry_equiv_pos_site_id
 _symmetry_equiv_pos_as_xyz
  1  'x, y, z'
loop_
 _atom_site_type_symbol
 _atom_site_label
 _atom_site_symmetry_multiplicity
 _atom_site_fract_x
 _atom_site_fract_y
 _atom_site_fract_z
 _atom_site_occupancy
  Zr  Zr0  1  0.53306182  0.83881470  0.59385849  1
  O  O1  1  0.53254087  0.17566650  0.92978484  1
