# generated using pymatgen
data_ZrPbF6
_symmetry_space_group_name_H-M   P1
_cell_length_a   5.36772990
_cell_length_b   5.38731912
_cell_length_c   5.46818056
_cell_angle_alpha   92.52840698
_cell_angle_beta   110.78789992
_cell_angle_gamma   90.99676867
_symmetry_Int_Tables_number   1
_chemical_formula_structural   ZrPbF6
_chemical_formula_sum   'Zr1 Pb1 F6'
_cell_volume   147.59666466
_cell_formula_units_Z   1
loop_
 _symmetry_equiv_pos_site_id
 _symmetry_equiv_pos_as_xyz
  1  'x, y, z'
loop_
 _atom_site_type_symbol
 _atom_site_label
 _atom_site_symmetry_multiplicity
 _atom_site_fract_x
 _atom_site_fract_y
 _atom_site_fract_z
 _atom_site_occupancy
  Zr  Zr0  1  0.57083723  0.52441858  0.11361643  1
  Pb  Pb1  1  0.20042594  0.02070639  0.48006600  1
  F  F2  1  0.29246670  0.29481378  0.17281741  1
  F  F3  1  0.30255122  0.72516108  0.84596389  1
  F  F4  1  0.53573668  0.76921013  0.39618491  1
  F  F5  1  0.55795139  0.28483048  0.81353453  1
  F  F6  1  0.84475192  0.32965228  0.38450325  1
  F  F7  1  0.87907502  0.74673048  0.11500036  1
