# generated using pymatgen
data_Ac2ZnIn
_symmetry_space_group_name_H-M   C2/m
_cell_length_a   9.21173283
_cell_length_b   5.52269534
_cell_length_c   5.41459723
_cell_angle_alpha   90.00000000
_cell_angle_beta   94.21656659
_cell_angle_gamma   90.00000000
_symmetry_Int_Tables_number   12
_chemical_formula_structural   Ac2ZnIn
_chemical_formula_sum   'Ac4 Zn2 In2'
_cell_volume   274.71442212
_cell_formula_units_Z   2
loop_
 _symmetry_equiv_pos_site_id
 _symmetry_equiv_pos_as_xyz
  1  'x, y, z'
  2  '-x, -y, -z'
  3  '-x, y, -z'
  4  'x, -y, z'
  5  'x+1/2, y+1/2, z'
  6  '-x+1/2, -y+1/2, -z'
  7  '-x+1/2, y+1/2, -z'
  8  'x+1/2, -y+1/2, z'
loop_
 _atom_site_type_symbol
 _atom_site_label
 _atom_site_symmetry_multiplicity
 _atom_site_fract_x
 _atom_site_fract_y
 _atom_site_fract_z
 _atom_site_occupancy
  Ac  Ac0  4  0.16507602  0.00000000  0.26237692  1
  Zn  Zn1  2  0.00000000  0.50000000  0.50000000  1
  In  In2  2  0.00000000  0.50000000  0.00000000  1
