# generated using pymatgen
data_Ac3In
_symmetry_space_group_name_H-M   C2/m
_cell_length_a   12.59485759
_cell_length_b   5.65684482
_cell_length_c   9.68361607
_cell_angle_alpha   90.00000000
_cell_angle_beta   111.61639859
_cell_angle_gamma   90.00000000
_symmetry_Int_Tables_number   12
_chemical_formula_structural   Ac3In
_chemical_formula_sum   'Ac12 In4'
_cell_volume   641.40806067
_cell_formula_units_Z   4
loop_
 _symmetry_equiv_pos_site_id
 _symmetry_equiv_pos_as_xyz
  1  'x, y, z'
  2  '-x, -y, -z'
  3  '-x, y, -z'
  4  'x, -y, z'
  5  'x+1/2, y+1/2, z'
  6  '-x+1/2, -y+1/2, -z'
  7  '-x+1/2, y+1/2, -z'
  8  'x+1/2, -y+1/2, z'
loop_
 _atom_site_type_symbol
 _atom_site_label
 _atom_site_symmetry_multiplicity
 _atom_site_fract_x
 _atom_site_fract_y
 _atom_site_fract_z
 _atom_site_occupancy
  Ac  Ac0  4  0.11395116  0.50000000  0.20658998  1
  Ac  Ac1  4  0.13248346  0.00000000  0.93026159  1
  Ac  Ac2  4  0.15192513  0.50000000  0.64104577  1
  In  In3  4  0.08515272  0.00000000  0.42055950  1
