# generated using pymatgen
data_Al2FeOs
_symmetry_space_group_name_H-M   P1
_cell_length_a   3.29476261
_cell_length_b   3.71130458
_cell_length_c   5.33486652
_cell_angle_alpha   88.97534123
_cell_angle_beta   74.42610168
_cell_angle_gamma   67.93639881
_symmetry_Int_Tables_number   1
_chemical_formula_structural   Al2FeOs
_chemical_formula_sum   'Al2 Fe1 Os1'
_cell_volume   57.98506539
_cell_formula_units_Z   1
loop_
 _symmetry_equiv_pos_site_id
 _symmetry_equiv_pos_as_xyz
  1  'x, y, z'
loop_
 _atom_site_type_symbol
 _atom_site_label
 _atom_site_symmetry_multiplicity
 _atom_site_fract_x
 _atom_site_fract_y
 _atom_site_fract_z
 _atom_site_occupancy
  Al  Al0  1  0.00000000  0.00000000  0.00000000  1
  Al  Al1  1  0.01749551  0.54254287  0.47979981  1
  Fe  Fe2  1  0.61563075  0.65884739  0.31566274  1
  Os  Os3  1  0.36265069  0.33165526  0.79222608  1
