# generated using pymatgen
data_Al2IrOs
_symmetry_space_group_name_H-M   P1
_cell_length_a   1.49988961
_cell_length_b   2.02501217
_cell_length_c   2.13073613
_cell_angle_alpha   115.45128442
_cell_angle_beta   93.90634163
_cell_angle_gamma   110.47142047
_symmetry_Int_Tables_number   1
_chemical_formula_structural   Al2IrOs
_chemical_formula_sum   'Al2 Ir1 Os1'
_cell_volume   5.28891700
_cell_formula_units_Z   1
loop_
 _symmetry_equiv_pos_site_id
 _symmetry_equiv_pos_as_xyz
  1  'x, y, z'
loop_
 _atom_site_type_symbol
 _atom_site_label
 _atom_site_symmetry_multiplicity
 _atom_site_fract_x
 _atom_site_fract_y
 _atom_site_fract_z
 _atom_site_occupancy
  Al  Al0  1  0.00000000  0.00000000  0.00000000  1
  Al  Al1  1  0.53497282  0.10078123  0.56368899  1
  Ir  Ir2  1  0.37923923  0.58738032  0.75478479  1
  Os  Os3  1  0.71159744  0.46793658  0.14639622  1
