# generated using pymatgen
data_Al2O3
_symmetry_space_group_name_H-M   P1
_cell_length_a   3.20537650
_cell_length_b   3.36530876
_cell_length_c   4.99584956
_cell_angle_alpha   85.39659900
_cell_angle_beta   75.82013836
_cell_angle_gamma   66.20554255
_symmetry_Int_Tables_number   1
_chemical_formula_structural   Al2O3
_chemical_formula_sum   'Al4 O6'
_cell_volume   47.79698437
_cell_formula_units_Z   2
loop_
 _symmetry_equiv_pos_site_id
 _symmetry_equiv_pos_as_xyz
  1  'x, y, z'
loop_
 _atom_site_type_symbol
 _atom_site_label
 _atom_site_symmetry_multiplicity
 _atom_site_fract_x
 _atom_site_fract_y
 _atom_site_fract_z
 _atom_site_occupancy
  Al  Al0  1  0.26504260  0.11394745  0.37388039  1
  Al  Al1  1  0.31658545  0.49311760  0.87763378  1
  Al  Al2  1  0.33347702  0.38394356  0.83847293  1
  Al  Al3  1  0.79014224  0.32252365  0.13693333  1
  O  O4  1  0.23407036  0.76592964  0.14503872  1
  O  O5  1  0.28237015  0.48093759  0.04267502  1
  O  O6  1  0.51769620  0.00156534  0.65534413  1
  O  O7  1  0.65132141  0.86060876  0.00000000  1
  O  O8  1  0.71568778  0.33136305  0.74050719  1
  O  O9  1  0.81177866  0.03633761  0.17326820  1
