# generated using pymatgen
data_Al2VOs
_symmetry_space_group_name_H-M   P1
_cell_length_a   3.29797423
_cell_length_b   3.48982716
_cell_length_c   3.75321317
_cell_angle_alpha   113.05197906
_cell_angle_beta   105.38484799
_cell_angle_gamma   103.26835579
_symmetry_Int_Tables_number   1
_chemical_formula_structural   Al2VOs
_chemical_formula_sum   'Al2 V1 Os1'
_cell_volume   35.51448177
_cell_formula_units_Z   1
loop_
 _symmetry_equiv_pos_site_id
 _symmetry_equiv_pos_as_xyz
  1  'x, y, z'
loop_
 _atom_site_type_symbol
 _atom_site_label
 _atom_site_symmetry_multiplicity
 _atom_site_fract_x
 _atom_site_fract_y
 _atom_site_fract_z
 _atom_site_occupancy
  Al  Al0  1  0.00000000  0.00000000  0.00000000  1
  Al  Al1  1  0.47217232  0.66745055  0.86911964  1
  V  V2  1  0.79632857  0.18604788  0.63937604  1
  Os  Os3  1  0.23680055  0.79884261  0.66116536  1
