# generated using pymatgen
data_Al2ZnS4
_symmetry_space_group_name_H-M   Cm
_cell_length_a   13.97598927
_cell_length_b   3.57465635
_cell_length_c   5.90887303
_cell_angle_alpha   90.00000000
_cell_angle_beta   90.96884862
_cell_angle_gamma   90.00000000
_symmetry_Int_Tables_number   8
_chemical_formula_structural   Al2ZnS4
_chemical_formula_sum   'Al4 Zn2 S8'
_cell_volume   295.16130427
_cell_formula_units_Z   2
loop_
 _symmetry_equiv_pos_site_id
 _symmetry_equiv_pos_as_xyz
  1  'x, y, z'
  2  'x, -y, z'
  3  'x+1/2, y+1/2, z'
  4  'x+1/2, -y+1/2, z'
loop_
 _atom_site_type_symbol
 _atom_site_label
 _atom_site_symmetry_multiplicity
 _atom_site_fract_x
 _atom_site_fract_y
 _atom_site_fract_z
 _atom_site_occupancy
  Al  Al0  2  0.14565359  0.50000000  0.01993493  1
  Al  Al1  2  0.29757667  0.00000000  0.46734931  1
  Zn  Zn2  2  0.42179796  0.50000000  0.95868806  1
  S  S3  2  0.00835587  0.50000000  0.82046078  1
  S  S4  2  0.15333898  0.00000000  0.26113628  1
  S  S5  2  0.26624800  0.50000000  0.75604776  1
  S  S6  2  0.38740872  0.50000000  0.33784676  1
