# generated using pymatgen
data_Al4O7
_symmetry_space_group_name_H-M   P1
_cell_length_a   3.61938167
_cell_length_b   4.05062962
_cell_length_c   4.40536983
_cell_angle_alpha   100.95868709
_cell_angle_beta   97.18883993
_cell_angle_gamma   102.90991211
_symmetry_Int_Tables_number   1
_chemical_formula_structural   Al4O7
_chemical_formula_sum   'Al4 O7'
_cell_volume   60.85013619
_cell_formula_units_Z   1
loop_
 _symmetry_equiv_pos_site_id
 _symmetry_equiv_pos_as_xyz
  1  'x, y, z'
loop_
 _atom_site_type_symbol
 _atom_site_label
 _atom_site_symmetry_multiplicity
 _atom_site_fract_x
 _atom_site_fract_y
 _atom_site_fract_z
 _atom_site_occupancy
  Al  Al0  1  0.13527524  0.87273231  0.00000000  1
  Al  Al1  1  0.47053927  0.27790159  0.79280770  1
  Al  Al2  1  0.47636151  0.69454548  0.78095388  1
  Al  Al3  1  0.90315825  0.57450664  0.52484179  1
  O  O4  1  0.00000000  0.00000000  0.00000000  1
  O  O5  1  0.02288637  0.47735596  0.17707941  1
  O  O6  1  0.39231020  0.08962071  0.00000000  1
  O  O7  1  0.56900382  0.83226930  0.89765042  1
  O  O8  1  0.57771820  0.61959350  0.57771820  1
  O  O9  1  0.81485128  0.02529550  0.32983378  1
  O  O10  1  0.85329664  0.78421199  0.40859276  1
