# generated using pymatgen
data_AlCrRu2
_symmetry_space_group_name_H-M   P1
_cell_length_a   1.86599565
_cell_length_b   2.16676015
_cell_length_c   2.56847660
_cell_angle_alpha   104.23021823
_cell_angle_beta   90.68139199
_cell_angle_gamma   109.75759208
_symmetry_Int_Tables_number   1
_chemical_formula_structural   AlCrRu2
_chemical_formula_sum   'Al1 Cr1 Ru2'
_cell_volume   9.42204920
_cell_formula_units_Z   1
loop_
 _symmetry_equiv_pos_site_id
 _symmetry_equiv_pos_as_xyz
  1  'x, y, z'
loop_
 _atom_site_type_symbol
 _atom_site_label
 _atom_site_symmetry_multiplicity
 _atom_site_fract_x
 _atom_site_fract_y
 _atom_site_fract_z
 _atom_site_occupancy
  Al  Al0  1  0.00000000  0.00000000  0.00000000  1
  Cr  Cr1  1  0.47859257  0.32845366  0.42523697  1
  Ru  Ru2  1  0.02251658  0.88820288  0.42332196  1
  Ru  Ru3  1  0.99633640  0.37408143  0.65017939  1
