# generated using pymatgen
data_AlFe2W
_symmetry_space_group_name_H-M   P1
_cell_length_a   1.83381379
_cell_length_b   2.56209588
_cell_length_c   2.59863396
_cell_angle_alpha   88.14926711
_cell_angle_beta   80.09088410
_cell_angle_gamma   80.12935638
_symmetry_Int_Tables_number   1
_chemical_formula_structural   AlFe2W
_chemical_formula_sum   'Al1 Fe2 W1'
_cell_volume   11.84921259
_cell_formula_units_Z   1
loop_
 _symmetry_equiv_pos_site_id
 _symmetry_equiv_pos_as_xyz
  1  'x, y, z'
loop_
 _atom_site_type_symbol
 _atom_site_label
 _atom_site_symmetry_multiplicity
 _atom_site_fract_x
 _atom_site_fract_y
 _atom_site_fract_z
 _atom_site_occupancy
  Al  Al0  1  0.70314336  0.54487845  0.79479033  1
  Fe  Fe1  1  0.39854407  0.73462248  0.33894619  1
  Fe  Fe2  1  0.50710261  0.20191848  0.60656679  1
  W  W3  1  0.00000000  0.00000000  0.00000000  1
