# generated using pymatgen
data_AlVTc2
_symmetry_space_group_name_H-M   P1
_cell_length_a   3.23115134
_cell_length_b   3.46793294
_cell_length_c   4.84031414
_cell_angle_alpha   98.87697774
_cell_angle_beta   95.04638230
_cell_angle_gamma   106.28823090
_symmetry_Int_Tables_number   1
_chemical_formula_structural   AlVTc2
_chemical_formula_sum   'Al1 V1 Tc2'
_cell_volume   50.94227986
_cell_formula_units_Z   1
loop_
 _symmetry_equiv_pos_site_id
 _symmetry_equiv_pos_as_xyz
  1  'x, y, z'
loop_
 _atom_site_type_symbol
 _atom_site_label
 _atom_site_symmetry_multiplicity
 _atom_site_fract_x
 _atom_site_fract_y
 _atom_site_fract_z
 _atom_site_occupancy
  Al  Al0  1  0.31724423  0.63300723  0.87962267  1
  V  V1  1  0.83060694  0.44395900  0.27322626  1
  Tc  Tc2  1  0.00000000  0.00000000  0.00000000  1
  Tc  Tc3  1  0.63905263  0.96247649  0.56962031  1
