# generated using pymatgen
data_B2H
_symmetry_space_group_name_H-M   P1
_cell_length_a   2.15902363
_cell_length_b   2.22636223
_cell_length_c   2.37254786
_cell_angle_alpha   81.65094757
_cell_angle_beta   67.08839413
_cell_angle_gamma   63.86595629
_symmetry_Int_Tables_number   1
_chemical_formula_structural   B2H
_chemical_formula_sum   'B2 H1'
_cell_volume   9.42587914
_cell_formula_units_Z   1
loop_
 _symmetry_equiv_pos_site_id
 _symmetry_equiv_pos_as_xyz
  1  'x, y, z'
loop_
 _atom_site_type_symbol
 _atom_site_label
 _atom_site_symmetry_multiplicity
 _atom_site_fract_x
 _atom_site_fract_y
 _atom_site_fract_z
 _atom_site_occupancy
  B  B0  1  0.28101385  0.28953511  0.26822650  1
  B  B1  1  0.71809381  0.58026272  0.65129793  1
  H  H2  1  0.00000000  0.00000000  0.00000000  1
