# generated using pymatgen
data_Ba(GeAu)2
_symmetry_space_group_name_H-M   P1
_cell_length_a   4.64730862
_cell_length_b   5.49938454
_cell_length_c   5.58566761
_cell_angle_alpha   100.22841106
_cell_angle_beta   107.62701222
_cell_angle_gamma   99.29784526
_symmetry_Int_Tables_number   1
_chemical_formula_structural   Ba(GeAu)2
_chemical_formula_sum   'Ba1 Ge2 Au2'
_cell_volume   130.31322789
_cell_formula_units_Z   1
loop_
 _symmetry_equiv_pos_site_id
 _symmetry_equiv_pos_as_xyz
  1  'x, y, z'
loop_
 _atom_site_type_symbol
 _atom_site_label
 _atom_site_symmetry_multiplicity
 _atom_site_fract_x
 _atom_site_fract_y
 _atom_site_fract_z
 _atom_site_occupancy
  Ba  Ba0  1  0.00000000  0.00000000  0.00000000  1
  Ge  Ge1  1  0.56710690  0.56710690  0.90795964  1
  Ge  Ge2  1  0.68327057  0.68327057  0.21514791  1
  Au  Au3  1  0.04284829  0.62038165  0.34359860  1
  Au  Au4  1  0.82613078  0.36938581  0.46291921  1
