# generated using pymatgen
data_Ba2CdSnO6
_symmetry_space_group_name_H-M   P1
_cell_length_a   4.52482653
_cell_length_b   5.23980337
_cell_length_c   5.62805501
_cell_angle_alpha   68.63367140
_cell_angle_beta   78.51983191
_cell_angle_gamma   66.91928391
_symmetry_Int_Tables_number   1
_chemical_formula_structural   Ba2CdSnO6
_chemical_formula_sum   'Ba2 Cd1 Sn1 O6'
_cell_volume   114.07232445
_cell_formula_units_Z   1
loop_
 _symmetry_equiv_pos_site_id
 _symmetry_equiv_pos_as_xyz
  1  'x, y, z'
loop_
 _atom_site_type_symbol
 _atom_site_label
 _atom_site_symmetry_multiplicity
 _atom_site_fract_x
 _atom_site_fract_y
 _atom_site_fract_z
 _atom_site_occupancy
  Ba  Ba0  1  0.31238484  0.21516657  0.28774369  1
  Ba  Ba1  1  0.66590920  0.79040456  0.78315416  1
  Cd  Cd2  1  0.55419490  0.41630542  0.49360484  1
  Sn  Sn3  1  0.00000000  0.00000000  0.00000000  1
  O  O4  1  0.01634505  0.17773616  0.20514947  1
  O  O5  1  0.03699622  0.86535627  0.28452796  1
  O  O6  1  0.04517213  0.33223832  0.87049080  1
  O  O7  1  0.53062004  0.56931514  0.82106745  1
  O  O8  1  0.67467648  0.71092111  0.17683613  1
  O  O9  1  0.70787641  0.25733119  0.81768128  1
