# generated using pymatgen
data_Ba2DyPaO6
_symmetry_space_group_name_H-M   P1
_cell_length_a   5.15339320
_cell_length_b   5.18122005
_cell_length_c   5.39888381
_cell_angle_alpha   65.49090299
_cell_angle_beta   70.30640190
_cell_angle_gamma   70.83125101
_symmetry_Int_Tables_number   1
_chemical_formula_structural   Ba2DyPaO6
_chemical_formula_sum   'Ba2 Dy1 Pa1 O6'
_cell_volume   120.46528131
_cell_formula_units_Z   1
loop_
 _symmetry_equiv_pos_site_id
 _symmetry_equiv_pos_as_xyz
  1  'x, y, z'
loop_
 _atom_site_type_symbol
 _atom_site_label
 _atom_site_symmetry_multiplicity
 _atom_site_fract_x
 _atom_site_fract_y
 _atom_site_fract_z
 _atom_site_occupancy
  Ba  Ba0  1  0.27110934  0.15801316  0.24381793  1
  Ba  Ba1  1  0.72594088  0.77606460  0.74613070  1
  Dy  Dy2  1  0.51012465  0.37816173  0.50860250  1
  Pa  Pa3  1  0.00000000  0.00000000  0.00000000  1
  O  O4  1  0.17253733  0.07164288  0.60712850  1
  O  O5  1  0.24849355  0.71148607  0.35777593  1
  O  O6  1  0.46996576  0.15910472  0.77625097  1
  O  O7  1  0.61499158  0.40687671  0.71561044  1
  O  O8  1  0.62572861  0.45849955  0.20938885  1
  O  O9  1  0.72854790  0.48446277  0.39195716  1
