# generated using pymatgen
data_Ba2MgTl
_symmetry_space_group_name_H-M   C2/m
_cell_length_a   10.42261944
_cell_length_b   6.07735800
_cell_length_c   5.82607312
_cell_angle_alpha   90.00000000
_cell_angle_beta   122.53221380
_cell_angle_gamma   90.00000000
_symmetry_Int_Tables_number   12
_chemical_formula_structural   Ba2MgTl
_chemical_formula_sum   'Ba4 Mg2 Tl2'
_cell_volume   311.12948476
_cell_formula_units_Z   2
loop_
 _symmetry_equiv_pos_site_id
 _symmetry_equiv_pos_as_xyz
  1  'x, y, z'
  2  '-x, -y, -z'
  3  '-x, y, -z'
  4  'x, -y, z'
  5  'x+1/2, y+1/2, z'
  6  '-x+1/2, -y+1/2, -z'
  7  '-x+1/2, y+1/2, -z'
  8  'x+1/2, -y+1/2, z'
loop_
 _atom_site_type_symbol
 _atom_site_label
 _atom_site_symmetry_multiplicity
 _atom_site_fract_x
 _atom_site_fract_y
 _atom_site_fract_z
 _atom_site_occupancy
  Ba  Ba0  4  0.24773940  0.00000000  0.74554882  1
  Mg  Mg1  2  0.00000000  0.50000000  0.50000000  1
  Tl  Tl2  2  0.00000000  0.00000000  0.00000000  1
