# generated using pymatgen
data_Ba2PaHO6
_symmetry_space_group_name_H-M   P1
_cell_length_a   4.56670046
_cell_length_b   4.62420271
_cell_length_c   5.34373027
_cell_angle_alpha   81.56274262
_cell_angle_beta   88.03915301
_cell_angle_gamma   73.86036820
_symmetry_Int_Tables_number   1
_chemical_formula_structural   Ba2PaHO6
_chemical_formula_sum   'Ba2 Pa1 H1 O6'
_cell_volume   107.22211155
_cell_formula_units_Z   1
loop_
 _symmetry_equiv_pos_site_id
 _symmetry_equiv_pos_as_xyz
  1  'x, y, z'
loop_
 _atom_site_type_symbol
 _atom_site_label
 _atom_site_symmetry_multiplicity
 _atom_site_fract_x
 _atom_site_fract_y
 _atom_site_fract_z
 _atom_site_occupancy
  Ba  Ba0  1  0.10357541  0.65385017  0.65640134  1
  Ba  Ba1  1  0.75708789  0.45340461  0.32671732  1
  Pa  Pa2  1  0.00000000  0.00000000  0.00000000  1
  H  H3  1  0.57795385  0.89620832  0.52216536  1
  O  O4  1  0.06241286  0.65717906  0.88258636  1
  O  O5  1  0.16237372  0.68321639  0.15162313  1
  O  O6  1  0.48058471  0.87118533  0.23237270  1
  O  O7  1  0.54956284  0.65098915  0.85953519  1
  O  O8  1  0.62922783  0.22236657  0.09849530  1
  O  O9  1  0.80345690  0.41085589  0.72622883  1
