# generated using pymatgen
data_Ba2UCdO6
_symmetry_space_group_name_H-M   P1
_cell_length_a   4.87957144
_cell_length_b   4.98157622
_cell_length_c   5.27516603
_cell_angle_alpha   102.81431357
_cell_angle_beta   111.43394470
_cell_angle_gamma   106.51095350
_symmetry_Int_Tables_number   1
_chemical_formula_structural   Ba2UCdO6
_chemical_formula_sum   'Ba2 U1 Cd1 O6'
_cell_volume   106.54804917
_cell_formula_units_Z   1
loop_
 _symmetry_equiv_pos_site_id
 _symmetry_equiv_pos_as_xyz
  1  'x, y, z'
loop_
 _atom_site_type_symbol
 _atom_site_label
 _atom_site_symmetry_multiplicity
 _atom_site_fract_x
 _atom_site_fract_y
 _atom_site_fract_z
 _atom_site_occupancy
  Ba  Ba0  1  0.27146700  0.67813253  0.31890401  1
  Ba  Ba1  1  0.61402220  0.19820601  0.67196983  1
  U  U2  1  0.00000000  0.00000000  0.00000000  1
  Cd  Cd3  1  0.00417960  0.62358594  0.48384604  1
  O  O4  1  0.07976750  0.80143973  0.66500926  1
  O  O5  1  0.63356698  0.41093683  0.23358589  1
  O  O6  1  0.65312806  0.77121362  0.89426827  1
  O  O7  1  0.86801997  0.70259908  0.10904031  1
  O  O8  1  0.89582375  0.28309870  0.25818849  1
  O  O9  1  0.95015502  0.20978963  0.91827774  1
