# generated using pymatgen
data_Ba3(LiBi)4
_symmetry_space_group_name_H-M   P1
_cell_length_a   7.35523224
_cell_length_b   8.69855404
_cell_length_c   8.77691558
_cell_angle_alpha   70.86799775
_cell_angle_beta   65.43982814
_cell_angle_gamma   81.06456757
_symmetry_Int_Tables_number   1
_chemical_formula_structural   Ba3(LiBi)4
_chemical_formula_sum   'Ba3 Li4 Bi4'
_cell_volume   482.41094058
_cell_formula_units_Z   1
loop_
 _symmetry_equiv_pos_site_id
 _symmetry_equiv_pos_as_xyz
  1  'x, y, z'
loop_
 _atom_site_type_symbol
 _atom_site_label
 _atom_site_symmetry_multiplicity
 _atom_site_fract_x
 _atom_site_fract_y
 _atom_site_fract_z
 _atom_site_occupancy
  Ba  Ba0  1  0.00000000  0.00000000  0.00000000  1
  Ba  Ba1  1  0.18436560  0.67886162  0.81030226  1
  Ba  Ba2  1  0.79695106  0.47588104  0.21362406  1
  Li  Li3  1  0.23533469  0.96057039  0.39845461  1
  Li  Li4  1  0.48836461  0.46897340  0.53102660  1
  Li  Li5  1  0.71792287  0.31328714  0.74817550  1
  Li  Li6  1  0.83885169  0.20700407  0.47081178  1
  Bi  Bi7  1  0.15386066  0.16993549  0.83006451  1
  Bi  Bi8  1  0.33242846  0.79123768  0.00000000  1
  Bi  Bi9  1  0.50069314  0.32194233  0.00000000  1
  Bi  Bi10  1  0.68040299  0.87715143  0.39758021  1
