# generated using pymatgen
data_Ba3Li4Bi3
_symmetry_space_group_name_H-M   P1
_cell_length_a   5.46459484
_cell_length_b   7.85153246
_cell_length_c   9.37346882
_cell_angle_alpha   104.50647697
_cell_angle_beta   100.54549051
_cell_angle_gamma   95.82829285
_symmetry_Int_Tables_number   1
_chemical_formula_structural   Ba3Li4Bi3
_chemical_formula_sum   'Ba3 Li4 Bi3'
_cell_volume   378.15745838
_cell_formula_units_Z   1
loop_
 _symmetry_equiv_pos_site_id
 _symmetry_equiv_pos_as_xyz
  1  'x, y, z'
loop_
 _atom_site_type_symbol
 _atom_site_label
 _atom_site_symmetry_multiplicity
 _atom_site_fract_x
 _atom_site_fract_y
 _atom_site_fract_z
 _atom_site_occupancy
  Ba  Ba0  1  0.00000000  0.00000000  0.00000000  1
  Ba  Ba1  1  0.24400890  0.56590033  0.42638636  1
  Ba  Ba2  1  0.72860253  0.27726698  0.72860253  1
  Li  Li3  1  0.21689016  0.66756642  0.63590747  1
  Li  Li4  1  0.25459316  0.09411502  0.66335699  1
  Li  Li5  1  0.48046204  0.00000000  0.24667174  1
  Li  Li6  1  0.94568509  0.50357035  0.42863762  1
  Bi  Bi7  1  0.37507722  0.42681605  0.00000000  1
  Bi  Bi8  1  0.39387736  0.75115785  0.26929706  1
  Bi  Bi9  1  0.59004837  0.36077225  0.68480635  1
