# generated using pymatgen
data_Ba4As2O
_symmetry_space_group_name_H-M   Cm
_cell_length_a   7.36333443
_cell_length_b   7.35258479
_cell_length_c   9.50431737
_cell_angle_alpha   90.00000000
_cell_angle_beta   112.12589280
_cell_angle_gamma   90.00000000
_symmetry_Int_Tables_number   8
_chemical_formula_structural   Ba4As2O
_chemical_formula_sum   'Ba8 As4 O2'
_cell_volume   476.66646098
_cell_formula_units_Z   2
loop_
 _symmetry_equiv_pos_site_id
 _symmetry_equiv_pos_as_xyz
  1  'x, y, z'
  2  'x, -y, z'
  3  'x+1/2, y+1/2, z'
  4  'x+1/2, -y+1/2, z'
loop_
 _atom_site_type_symbol
 _atom_site_label
 _atom_site_symmetry_multiplicity
 _atom_site_fract_x
 _atom_site_fract_y
 _atom_site_fract_z
 _atom_site_occupancy
  Ba  Ba0  4  0.20299499  0.25181407  0.97568403  1
  Ba  Ba1  2  0.11743845  0.50000000  0.32140827  1
  Ba  Ba2  2  0.25813878  0.00000000  0.60895931  1
  As  As3  2  0.08736640  0.00000000  0.24642074  1
  As  As4  2  0.32806887  0.50000000  0.70640141  1
  O  O5  2  0.47225889  0.00000000  0.01747392  1
