# generated using pymatgen
data_BaBr2
_symmetry_space_group_name_H-M   P1
_cell_length_a   4.83948559
_cell_length_b   8.71288356
_cell_length_c   12.34513640
_cell_angle_alpha   104.45820676
_cell_angle_beta   100.81612099
_cell_angle_gamma   90.70061454
_symmetry_Int_Tables_number   1
_chemical_formula_structural   BaBr2
_chemical_formula_sum   'Ba4 Br8'
_cell_volume   494.14692548
_cell_formula_units_Z   4
loop_
 _symmetry_equiv_pos_site_id
 _symmetry_equiv_pos_as_xyz
  1  'x, y, z'
loop_
 _atom_site_type_symbol
 _atom_site_label
 _atom_site_symmetry_multiplicity
 _atom_site_fract_x
 _atom_site_fract_y
 _atom_site_fract_z
 _atom_site_occupancy
  Ba  Ba0  1  0.22420903  0.23865331  0.16113356  1
  Ba  Ba1  1  0.29018845  0.79276445  0.31775299  1
  Ba  Ba2  1  0.60449599  0.69675316  0.90055694  1
  Ba  Ba3  1  0.96163392  0.23001454  0.62797044  1
  Br  Br4  1  0.01411209  0.60378308  0.70974643  1
  Br  Br5  1  0.11922674  0.97817651  0.92655170  1
  Br  Br6  1  0.17431396  0.56581546  0.05274666  1
  Br  Br7  1  0.36337587  0.19175728  0.43057240  1
  Br  Br8  1  0.54938199  0.28972311  0.80624080  1
  Br  Br9  1  0.73496865  0.95958631  0.18091128  1
  Br  Br10  1  0.78438341  0.47577801  0.27740555  1
  Br  Br11  1  0.87770916  0.85755653  0.50040864  1
