# generated using pymatgen
data_BaRhF6
_symmetry_space_group_name_H-M   P1
_cell_length_a   4.07966805
_cell_length_b   4.87203180
_cell_length_c   7.23839356
_cell_angle_alpha   96.74535063
_cell_angle_beta   104.84249724
_cell_angle_gamma   114.52249675
_symmetry_Int_Tables_number   1
_chemical_formula_structural   BaRhF6
_chemical_formula_sum   'Ba1 Rh1 F6'
_cell_volume   122.36263359
_cell_formula_units_Z   1
loop_
 _symmetry_equiv_pos_site_id
 _symmetry_equiv_pos_as_xyz
  1  'x, y, z'
loop_
 _atom_site_type_symbol
 _atom_site_label
 _atom_site_symmetry_multiplicity
 _atom_site_fract_x
 _atom_site_fract_y
 _atom_site_fract_z
 _atom_site_occupancy
  Ba  Ba0  1  0.76382819  0.73325558  0.43084309  1
  Rh  Rh1  1  0.82984794  0.36106387  0.92380719  1
  F  F2  1  0.09223781  0.35506865  0.45825224  1
  F  F3  1  0.11056082  0.67799645  0.17115028  1
  F  F4  1  0.35585839  0.38175798  0.95609697  1
  F  F5  1  0.55010150  0.06262265  0.66992604  1
  F  F6  1  0.73615853  0.04725404  0.05971895  1
  F  F7  1  0.93342262  0.68899460  0.79506204  1
