# generated using pymatgen
data_BaSbPt
_symmetry_space_group_name_H-M   Cm
_cell_length_a   7.82615349
_cell_length_b   4.63073166
_cell_length_c   5.68152773
_cell_angle_alpha   90.00000000
_cell_angle_beta   109.38763143
_cell_angle_gamma   90.00000000
_symmetry_Int_Tables_number   8
_chemical_formula_structural   BaSbPt
_chemical_formula_sum   'Ba2 Sb2 Pt2'
_cell_volume   194.22732836
_cell_formula_units_Z   2
loop_
 _symmetry_equiv_pos_site_id
 _symmetry_equiv_pos_as_xyz
  1  'x, y, z'
  2  'x, -y, z'
  3  'x+1/2, y+1/2, z'
  4  'x+1/2, -y+1/2, z'
loop_
 _atom_site_type_symbol
 _atom_site_label
 _atom_site_symmetry_multiplicity
 _atom_site_fract_x
 _atom_site_fract_y
 _atom_site_fract_z
 _atom_site_occupancy
  Ba  Ba0  2  0.48563352  0.50000000  0.02091511  1
  Sb  Sb1  2  0.03646452  0.50000000  0.54029675  1
  Pt  Pt2  2  0.22157511  0.00000000  0.62199881  1
