# generated using pymatgen
data_Be5Bi
_symmetry_space_group_name_H-M   P1
_cell_length_a   4.02482998
_cell_length_b   4.17595638
_cell_length_c   4.96151094
_cell_angle_alpha   74.13672421
_cell_angle_beta   76.83672138
_cell_angle_gamma   87.60370630
_symmetry_Int_Tables_number   1
_chemical_formula_structural   Be5Bi
_chemical_formula_sum   'Be5 Bi1'
_cell_volume   78.08864002
_cell_formula_units_Z   1
loop_
 _symmetry_equiv_pos_site_id
 _symmetry_equiv_pos_as_xyz
  1  'x, y, z'
loop_
 _atom_site_type_symbol
 _atom_site_label
 _atom_site_symmetry_multiplicity
 _atom_site_fract_x
 _atom_site_fract_y
 _atom_site_fract_z
 _atom_site_occupancy
  Be  Be0  1  0.25020805  0.36892804  0.43859424  1
  Be  Be1  1  0.34726842  0.43842766  0.86252971  1
  Be  Be2  1  0.38791127  0.85263128  0.49650225  1
  Be  Be3  1  0.70786390  0.17614811  0.58276454  1
  Be  Be4  1  0.86577257  0.63520928  0.65141958  1
  Bi  Bi5  1  0.97949991  0.90085984  0.07538056  1
