# generated using pymatgen
data_Be
_symmetry_space_group_name_H-M   P1
_cell_length_a   4.00348234
_cell_length_b   4.46197510
_cell_length_c   4.65748767
_cell_angle_alpha   92.91455560
_cell_angle_beta   104.80990691
_cell_angle_gamma   107.57172394
_symmetry_Int_Tables_number   1
_chemical_formula_structural   Be
_chemical_formula_sum   Be5
_cell_volume   75.93843278
_cell_formula_units_Z   5
loop_
 _symmetry_equiv_pos_site_id
 _symmetry_equiv_pos_as_xyz
  1  'x, y, z'
loop_
 _atom_site_type_symbol
 _atom_site_label
 _atom_site_symmetry_multiplicity
 _atom_site_fract_x
 _atom_site_fract_y
 _atom_site_fract_z
 _atom_site_occupancy
  Be  Be0  1  0.00000000  0.00000000  0.00000000  1
  Be  Be1  1  0.28879178  0.33044386  0.76798815  1
  Be  Be2  1  0.34856087  0.00000000  0.69848669  1
  Be  Be3  1  0.66497856  0.31507450  0.45949727  1
  Be  Be4  1  0.77994406  0.42490190  0.12213719  1
