# generated using pymatgen
data_BeAlIr2
_symmetry_space_group_name_H-M   P1
_cell_length_a   2.59631001
_cell_length_b   2.72501731
_cell_length_c   3.12765079
_cell_angle_alpha   99.82981990
_cell_angle_beta   91.71372080
_cell_angle_gamma   99.38970377
_symmetry_Int_Tables_number   1
_chemical_formula_structural   BeAlIr2
_chemical_formula_sum   'Be1 Al1 Ir2'
_cell_volume   21.47310500
_cell_formula_units_Z   1
loop_
 _symmetry_equiv_pos_site_id
 _symmetry_equiv_pos_as_xyz
  1  'x, y, z'
loop_
 _atom_site_type_symbol
 _atom_site_label
 _atom_site_symmetry_multiplicity
 _atom_site_fract_x
 _atom_site_fract_y
 _atom_site_fract_z
 _atom_site_occupancy
  Be  Be0  1  0.16448319  0.90539533  0.38362473  1
  Al  Al1  1  0.79292569  0.28661028  0.88671038  1
  Ir  Ir2  1  0.00000000  0.00000000  0.00000000  1
  Ir  Ir3  1  0.46217698  0.18158883  0.43216711  1
