# generated using pymatgen
data_BeSiIr2
_symmetry_space_group_name_H-M   P1
_cell_length_a   2.53791031
_cell_length_b   2.61168313
_cell_length_c   2.78851628
_cell_angle_alpha   78.30909374
_cell_angle_beta   84.73879704
_cell_angle_gamma   65.03138962
_symmetry_Int_Tables_number   1
_chemical_formula_structural   BeSiIr2
_chemical_formula_sum   'Be1 Si1 Ir2'
_cell_volume   16.40747870
_cell_formula_units_Z   1
loop_
 _symmetry_equiv_pos_site_id
 _symmetry_equiv_pos_as_xyz
  1  'x, y, z'
loop_
 _atom_site_type_symbol
 _atom_site_label
 _atom_site_symmetry_multiplicity
 _atom_site_fract_x
 _atom_site_fract_y
 _atom_site_fract_z
 _atom_site_occupancy
  Be  Be0  1  0.56524277  0.06789994  0.65817869  1
  Si  Si1  1  0.21893206  0.12920025  0.31640005  1
  Ir  Ir2  1  0.00000000  0.00000000  0.00000000  1
  Ir  Ir3  1  0.61652780  0.51685387  0.41724831  1
