# generated using pymatgen
data_BiHAu2
_symmetry_space_group_name_H-M   P1
_cell_length_a   4.27679812
_cell_length_b   4.33583028
_cell_length_c   4.81355315
_cell_angle_alpha   98.46754578
_cell_angle_beta   101.91690548
_cell_angle_gamma   92.85871724
_symmetry_Int_Tables_number   1
_chemical_formula_structural   BiHAu2
_chemical_formula_sum   'Bi1 H1 Au2'
_cell_volume   86.08652732
_cell_formula_units_Z   1
loop_
 _symmetry_equiv_pos_site_id
 _symmetry_equiv_pos_as_xyz
  1  'x, y, z'
loop_
 _atom_site_type_symbol
 _atom_site_label
 _atom_site_symmetry_multiplicity
 _atom_site_fract_x
 _atom_site_fract_y
 _atom_site_fract_z
 _atom_site_occupancy
  Bi  Bi0  1  0.72318762  0.07947467  0.97799413  1
  H  H1  1  0.24194541  0.73354667  0.27183435  1
  Au  Au2  1  0.07855419  0.96182295  0.52208396  1
  Au  Au3  1  0.24929011  0.53643316  0.91559418  1
