# generated using pymatgen
data_Ca2TlZn
_symmetry_space_group_name_H-M   C2/m
_cell_length_a   9.86823985
_cell_length_b   4.04183425
_cell_length_c   6.34543355
_cell_angle_alpha   90.00000000
_cell_angle_beta   107.01912862
_cell_angle_gamma   90.00000000
_symmetry_Int_Tables_number   12
_chemical_formula_structural   Ca2TlZn
_chemical_formula_sum   'Ca4 Tl2 Zn2'
_cell_volume   242.00896693
_cell_formula_units_Z   2
loop_
 _symmetry_equiv_pos_site_id
 _symmetry_equiv_pos_as_xyz
  1  'x, y, z'
  2  '-x, -y, -z'
  3  '-x, y, -z'
  4  'x, -y, z'
  5  'x+1/2, y+1/2, z'
  6  '-x+1/2, -y+1/2, -z'
  7  '-x+1/2, y+1/2, -z'
  8  'x+1/2, -y+1/2, z'
loop_
 _atom_site_type_symbol
 _atom_site_label
 _atom_site_symmetry_multiplicity
 _atom_site_fract_x
 _atom_site_fract_y
 _atom_site_fract_z
 _atom_site_occupancy
  Ca  Ca0  4  0.24264027  0.50000000  0.74345772  1
  Tl  Tl1  2  0.00000000  0.50000000  0.00000000  1
  Zn  Zn2  2  0.00000000  0.00000000  0.50000000  1
