# generated using pymatgen
data_CaBPt4
_symmetry_space_group_name_H-M   P1
_cell_length_a   3.58191419
_cell_length_b   7.00951167
_cell_length_c   8.67664337
_cell_angle_alpha   87.34018666
_cell_angle_beta   84.49557495
_cell_angle_gamma   83.09578106
_symmetry_Int_Tables_number   1
_chemical_formula_structural   CaBPt4
_chemical_formula_sum   'Ca2 B2 Pt8'
_cell_volume   215.13745812
_cell_formula_units_Z   2
loop_
 _symmetry_equiv_pos_site_id
 _symmetry_equiv_pos_as_xyz
  1  'x, y, z'
loop_
 _atom_site_type_symbol
 _atom_site_label
 _atom_site_symmetry_multiplicity
 _atom_site_fract_x
 _atom_site_fract_y
 _atom_site_fract_z
 _atom_site_occupancy
  Ca  Ca0  1  0.00000000  0.00000000  0.00000000  1
  Ca  Ca1  1  0.00000000  0.00000000  0.50942707  1
  B  B2  1  0.37626582  0.68541670  0.49270415  1
  B  B3  1  0.80284125  0.41393673  0.69113350  1
  Pt  Pt4  1  0.31000805  0.31000805  0.69490916  1
  Pt  Pt5  1  0.34411979  0.34411979  0.30396390  1
  Pt  Pt6  1  0.37238881  0.79672682  0.80522859  1
  Pt  Pt7  1  0.41506374  0.59978795  0.36903447  1
  Pt  Pt8  1  0.41901478  0.14795402  0.00000000  1
  Pt  Pt9  1  0.45736751  0.82324767  0.00000000  1
  Pt  Pt10  1  0.54070070  0.00000000  0.39889631  1
  Pt  Pt11  1  0.67373735  0.00000000  0.54150248  1
