# generated using pymatgen
data_CaNdAg2
_symmetry_space_group_name_H-M   P1
_cell_length_a   4.41922457
_cell_length_b   5.12575279
_cell_length_c   5.91734670
_cell_angle_alpha   65.28174998
_cell_angle_beta   75.97515786
_cell_angle_gamma   75.74910235
_symmetry_Int_Tables_number   1
_chemical_formula_structural   CaNdAg2
_chemical_formula_sum   'Ca1 Nd1 Ag2'
_cell_volume   116.52198014
_cell_formula_units_Z   1
loop_
 _symmetry_equiv_pos_site_id
 _symmetry_equiv_pos_as_xyz
  1  'x, y, z'
loop_
 _atom_site_type_symbol
 _atom_site_label
 _atom_site_symmetry_multiplicity
 _atom_site_fract_x
 _atom_site_fract_y
 _atom_site_fract_z
 _atom_site_occupancy
  Ca  Ca0  1  0.54739863  0.57640498  0.52264779  1
  Nd  Nd1  1  0.11462517  0.95647983  0.94898295  1
  Ag  Ag2  1  0.21229038  0.24547854  0.32579187  1
  Ag  Ag3  1  0.73843083  0.51317131  0.00426633  1
