# generated using pymatgen
data_CaSmZn2
_symmetry_space_group_name_H-M   Amm2
_cell_length_a   3.62266308
_cell_length_b   7.17793564
_cell_length_c   7.39727513
_cell_angle_alpha   90.00000000
_cell_angle_beta   90.00000000
_cell_angle_gamma   90.00000000
_symmetry_Int_Tables_number   38
_chemical_formula_structural   CaSmZn2
_chemical_formula_sum   'Ca2 Sm2 Zn4'
_cell_volume   192.35313848
_cell_formula_units_Z   2
loop_
 _symmetry_equiv_pos_site_id
 _symmetry_equiv_pos_as_xyz
  1  'x, y, z'
  2  '-x, -y, -z+158/167'
  3  'x, z+88/167, -y+79/167'
  4  '-x, -z+79/167, y+79/167'
  5  'x, -y, -z+158/167'
  6  '-x, y, z'
  7  'x, -z+79/167, y+79/167'
  8  '-x, z+88/167, -y+79/167'
  9  '-x, z+88/167, y+79/167'
  10  'x, -z+79/167, -y+79/167'
  11  '-x, -y, z'
  12  'x, y, -z+158/167'
  13  '-x, -z+79/167, -y+79/167'
  14  'x, z+88/167, y+79/167'
  15  '-x, y, -z+158/167'
  16  'x, -y, z'
  17  'x, y+1/2, z+1/2'
  18  '-x, -y+1/2, -z+149/334'
  19  'x, z+9/334, -y+325/334'
  20  '-x, -z+325/334, y+325/334'
  21  'x, -y+1/2, -z+149/334'
  22  '-x, y+1/2, z+1/2'
  23  'x, -z+325/334, y+325/334'
  24  '-x, z+9/334, -y+325/334'
  25  '-x, z+9/334, y+325/334'
  26  'x, -z+325/334, -y+325/334'
  27  '-x, -y+1/2, z+1/2'
  28  'x, y+1/2, -z+149/334'
  29  '-x, -z+325/334, -y+325/334'
  30  'x, z+9/334, y+325/334'
  31  '-x, y+1/2, -z+149/334'
  32  'x, -y+1/2, z+1/2'
loop_
 _atom_site_type_symbol
 _atom_site_label
 _atom_site_symmetry_multiplicity
 _atom_site_fract_x
 _atom_site_fract_y
 _atom_site_fract_z
 _atom_site_occupancy
  Ca  Ca0  2  0.50000000  0.00000000  0.47305480  1
  Sm  Sm1  2  0.50000000  0.00000000  0.97736830  1
  Zn  Zn2  4  0.00000000  0.24551831  0.72298250  1
