# generated using pymatgen
data_CeGa3Pd
_symmetry_space_group_name_H-M   P1
_cell_length_a   4.19757986
_cell_length_b   5.95443308
_cell_length_c   6.92895555
_cell_angle_alpha   81.92706036
_cell_angle_beta   82.53173065
_cell_angle_gamma   79.63526511
_symmetry_Int_Tables_number   1
_chemical_formula_structural   CeGa3Pd
_chemical_formula_sum   'Ce2 Ga6 Pd2'
_cell_volume   167.69191063
_cell_formula_units_Z   2
loop_
 _symmetry_equiv_pos_site_id
 _symmetry_equiv_pos_as_xyz
  1  'x, y, z'
loop_
 _atom_site_type_symbol
 _atom_site_label
 _atom_site_symmetry_multiplicity
 _atom_site_fract_x
 _atom_site_fract_y
 _atom_site_fract_z
 _atom_site_occupancy
  Ce  Ce0  1  0.50439033  0.14642173  0.56978199  1
  Ce  Ce1  1  0.77933457  0.60020372  0.32451767  1
  Ga  Ga2  1  0.09999371  0.29297292  0.55725244  1
  Ga  Ga3  1  0.11139715  0.19202805  0.00000000  1
  Ga  Ga4  1  0.27680373  0.37947685  0.39044887  1
  Ga  Ga5  1  0.78180060  0.76437759  0.45107019  1
  Ga  Ga6  1  0.80452719  0.88700837  -0.00000000  1
  Ga  Ga7  1  0.86817974  0.70642835  0.58345747  1
  Pd  Pd8  1  0.21760692  0.89571158  0.73224017  1
  Pd  Pd9  1  0.86871040  0.13128960  0.13908643  1
