# generated using pymatgen
data_CeIr5
_symmetry_space_group_name_H-M   P1
_cell_length_a   1.87759805
_cell_length_b   3.68820000
_cell_length_c   4.13834000
_cell_angle_alpha   106.36972809
_cell_angle_beta   94.78930664
_cell_angle_gamma   99.52825928
_symmetry_Int_Tables_number   1
_chemical_formula_structural   CeIr5
_chemical_formula_sum   'Ce1 Ir5'
_cell_volume   26.85907405
_cell_formula_units_Z   1
loop_
 _symmetry_equiv_pos_site_id
 _symmetry_equiv_pos_as_xyz
  1  'x, y, z'
loop_
 _atom_site_type_symbol
 _atom_site_label
 _atom_site_symmetry_multiplicity
 _atom_site_fract_x
 _atom_site_fract_y
 _atom_site_fract_z
 _atom_site_occupancy
  Ce  Ce0  1  0.00000000  0.00000000  0.00000000  1
  Ir  Ir1  1  0.00000000  0.47626638  0.69922835  1
  Ir  Ir2  1  0.00000000  0.61812770  0.46675590  1
  Ir  Ir3  1  0.75475222  0.32782969  0.00000000  1
  Ir  Ir4  1  0.76637483  0.00000000  0.53790683  1
  Ir  Ir5  1  0.80531788  0.50251836  0.61747122  1
