# generated using pymatgen
data_CeIr4
_symmetry_space_group_name_H-M   P1
_cell_length_a   3.07562137
_cell_length_b   4.02120209
_cell_length_c   6.81500011
_cell_angle_alpha   104.53537432
_cell_angle_beta   100.25199382
_cell_angle_gamma   96.97357941
_symmetry_Int_Tables_number   1
_chemical_formula_structural   CeIr4
_chemical_formula_sum   'Ce1 Ir4'
_cell_volume   79.05575274
_cell_formula_units_Z   1
loop_
 _symmetry_equiv_pos_site_id
 _symmetry_equiv_pos_as_xyz
  1  'x, y, z'
loop_
 _atom_site_type_symbol
 _atom_site_label
 _atom_site_symmetry_multiplicity
 _atom_site_fract_x
 _atom_site_fract_y
 _atom_site_fract_z
 _atom_site_occupancy
  Ce  Ce0  1  0.00000000  0.00000000  0.00000000  1
  Ir  Ir1  1  0.27307075  0.47405273  0.27307075  1
  Ir  Ir2  1  0.54647791  0.34247726  0.00000000  1
  Ir  Ir3  1  0.86517495  0.54277450  0.86517495  1
  Ir  Ir4  1  0.87725261  0.04118800  0.55392894  1
