# generated using pymatgen
data_CePt3
_symmetry_space_group_name_H-M   P1
_cell_length_a   4.84441948
_cell_length_b   5.18758631
_cell_length_c   5.96453428
_cell_angle_alpha   83.05195618
_cell_angle_beta   72.78114319
_cell_angle_gamma   78.57966614
_symmetry_Int_Tables_number   1
_chemical_formula_structural   CePt3
_chemical_formula_sum   'Ce1 Pt3'
_cell_volume   140.02936159
_cell_formula_units_Z   1
loop_
 _symmetry_equiv_pos_site_id
 _symmetry_equiv_pos_as_xyz
  1  'x, y, z'
loop_
 _atom_site_type_symbol
 _atom_site_label
 _atom_site_symmetry_multiplicity
 _atom_site_fract_x
 _atom_site_fract_y
 _atom_site_fract_z
 _atom_site_occupancy
  Ce  Ce0  1  0.00000000  0.00000000  0.00000000  1
  Pt  Pt1  1  0.00000000  0.49509156  0.61824501  1
  Pt  Pt2  1  0.47652155  0.41186678  -0.00000000  1
  Pt  Pt3  1  0.63349956  -0.00000000  0.38440883  1
