# generated using pymatgen
data_Co3Cu
_symmetry_space_group_name_H-M   P1
_cell_length_a   2.34287643
_cell_length_b   2.57165909
_cell_length_c   2.80489635
_cell_angle_alpha   90.71176910
_cell_angle_beta   90.95497131
_cell_angle_gamma   93.11910248
_symmetry_Int_Tables_number   1
_chemical_formula_structural   Co3Cu
_chemical_formula_sum   'Co3 Cu1'
_cell_volume   16.87084031
_cell_formula_units_Z   1
loop_
 _symmetry_equiv_pos_site_id
 _symmetry_equiv_pos_as_xyz
  1  'x, y, z'
loop_
 _atom_site_type_symbol
 _atom_site_label
 _atom_site_symmetry_multiplicity
 _atom_site_fract_x
 _atom_site_fract_y
 _atom_site_fract_z
 _atom_site_occupancy
  Co  Co0  1  -0.00000000  0.32508975  0.44246674  1
  Co  Co1  1  0.43871886  0.00000000  0.43632710  1
  Co  Co2  1  0.71720779  0.62505940  0.00000000  1
  Cu  Cu3  1  0.00000000  0.00000000  0.00000000  1
