# generated using pymatgen
data_Co3W
_symmetry_space_group_name_H-M   P1
_cell_length_a   2.99983835
_cell_length_b   3.14329910
_cell_length_c   3.17944837
_cell_angle_alpha   74.11920166
_cell_angle_beta   88.70421600
_cell_angle_gamma   88.72220612
_symmetry_Int_Tables_number   1
_chemical_formula_structural   Co3W
_chemical_formula_sum   'Co6 W2'
_cell_volume   28.82458057
_cell_formula_units_Z   2
loop_
 _symmetry_equiv_pos_site_id
 _symmetry_equiv_pos_as_xyz
  1  'x, y, z'
loop_
 _atom_site_type_symbol
 _atom_site_label
 _atom_site_symmetry_multiplicity
 _atom_site_fract_x
 _atom_site_fract_y
 _atom_site_fract_z
 _atom_site_occupancy
  Co  Co0  1  0.14715278  0.34314966  0.82100892  1
  Co  Co1  1  0.14805633  0.89293519  0.81411189  1
  Co  Co2  1  0.20701206  0.86712047  0.35649431  1
  Co  Co3  1  0.63921633  0.67474610  0.12017387  1
  Co  Co4  1  0.77540043  0.11608201  0.74140620  1
  Co  Co5  1  0.80716676  0.13395905  0.00000000  1
  W  W6  1  0.18086004  0.50094509  0.34561306  1
  W  W7  1  0.87407452  0.84301281  0.67561179  1
