# generated using pymatgen
data_Co5H
_symmetry_space_group_name_H-M   P1
_cell_length_a   3.19860125
_cell_length_b   3.88457966
_cell_length_c   4.07806258
_cell_angle_alpha   72.52780710
_cell_angle_beta   71.23540384
_cell_angle_gamma   81.84231567
_symmetry_Int_Tables_number   1
_chemical_formula_structural   Co5H
_chemical_formula_sum   'Co5 H1'
_cell_volume   45.70639169
_cell_formula_units_Z   1
loop_
 _symmetry_equiv_pos_site_id
 _symmetry_equiv_pos_as_xyz
  1  'x, y, z'
loop_
 _atom_site_type_symbol
 _atom_site_label
 _atom_site_symmetry_multiplicity
 _atom_site_fract_x
 _atom_site_fract_y
 _atom_site_fract_z
 _atom_site_occupancy
  Co  Co0  1  0.00000000  0.61689150  0.77131379  1
  Co  Co1  1  0.00000000  0.29981321  0.28950042  1
  Co  Co2  1  0.33315971  0.12528536  0.41515052  1
  Co  Co3  1  0.50162798  0.38625926  0.61374074  1
  Co  Co4  1  0.58838534  0.51579115  0.00000000  1
  H  H5  1  0.00000000  0.00000000  0.00000000  1
