# generated using pymatgen
data_Co5Mo3P4
_symmetry_space_group_name_H-M   P1
_cell_length_a   2.70329618
_cell_length_b   4.01356459
_cell_length_c   5.66994423
_cell_angle_alpha   76.09569036
_cell_angle_beta   80.15943895
_cell_angle_gamma   86.13802338
_symmetry_Int_Tables_number   1
_chemical_formula_structural   Co5Mo3P4
_chemical_formula_sum   'Co5 Mo3 P4'
_cell_volume   58.81468181
_cell_formula_units_Z   1
loop_
 _symmetry_equiv_pos_site_id
 _symmetry_equiv_pos_as_xyz
  1  'x, y, z'
loop_
 _atom_site_type_symbol
 _atom_site_label
 _atom_site_symmetry_multiplicity
 _atom_site_fract_x
 _atom_site_fract_y
 _atom_site_fract_z
 _atom_site_occupancy
  Co  Co0  1  0.32810557  0.18858039  0.27390903  1
  Co  Co1  1  0.39951441  0.27151024  0.89423785  1
  Co  Co2  1  0.42417815  0.76759106  0.71090451  1
  Co  Co3  1  0.49408942  -0.00000000  0.17192149  1
  Co  Co4  1  0.81030431  0.27087879  0.77750626  1
  Mo  Mo5  1  0.18218708  0.82272890  0.64215064  1
  Mo  Mo6  1  0.20854330  0.76336220  0.32158101  1
  Mo  Mo7  1  0.87199664  0.49084353  0.77049434  1
  P  P8  1  0.28986573  0.11749327  0.15802568  1
  P  P9  1  0.50195234  0.83999805  0.80010782  1
  P  P10  1  0.73253575  0.62975284  0.51164928  1
  P  P11  1  0.94045329  0.55635360  0.69406354  1
