# generated using pymatgen
data_Co6HW2
_symmetry_space_group_name_H-M   P1
_cell_length_a   2.30298638
_cell_length_b   2.39883947
_cell_length_c   2.75626257
_cell_angle_alpha   113.24373946
_cell_angle_beta   93.17030689
_cell_angle_gamma   100.95842743
_symmetry_Int_Tables_number   1
_chemical_formula_structural   Co6HW2
_chemical_formula_sum   'Co6 H1 W2'
_cell_volume   13.59182662
_cell_formula_units_Z   1
loop_
 _symmetry_equiv_pos_site_id
 _symmetry_equiv_pos_as_xyz
  1  'x, y, z'
loop_
 _atom_site_type_symbol
 _atom_site_label
 _atom_site_symmetry_multiplicity
 _atom_site_fract_x
 _atom_site_fract_y
 _atom_site_fract_z
 _atom_site_occupancy
  Co  Co0  1  0.18030131  0.42729113  0.78077263  1
  Co  Co1  1  0.29475331  0.93548605  0.20024362  1
  Co  Co2  1  0.36309797  0.80904269  0.80904269  1
  Co  Co3  1  0.52968475  0.20470083  0.00000000  1
  Co  Co4  1  0.79158738  0.17854345  0.79437053  1
  Co  Co5  1  0.83280635  0.67184240  0.00000000  1
  H  H6  1  0.00000000  0.00000000  0.00000000  1
  W  W7  1  0.14957744  0.44100758  0.20943537  1
  W  W8  1  0.65159860  0.15058330  0.58084273  1
