# generated using pymatgen
data_CoBr2
_symmetry_space_group_name_H-M   C2
_cell_length_a   5.50311460
_cell_length_b   5.47151562
_cell_length_c   6.92244241
_cell_angle_alpha   90.00000000
_cell_angle_beta   99.68399843
_cell_angle_gamma   90.00000000
_symmetry_Int_Tables_number   5
_chemical_formula_structural   CoBr2
_chemical_formula_sum   'Co2 Br4'
_cell_volume   205.46722312
_cell_formula_units_Z   2
loop_
 _symmetry_equiv_pos_site_id
 _symmetry_equiv_pos_as_xyz
  1  'x, y, z'
  2  '-x, y, -z'
  3  'x+1/2, y+1/2, z'
  4  '-x+1/2, y+1/2, -z'
loop_
 _atom_site_type_symbol
 _atom_site_label
 _atom_site_symmetry_multiplicity
 _atom_site_fract_x
 _atom_site_fract_y
 _atom_site_fract_z
 _atom_site_occupancy
  Co  Co0  2  0.00000000  0.89075646  0.50000000  1
  Br  Br1  4  0.20574767  0.63502787  0.28899710  1
