# generated using pymatgen
data_CoF2
_symmetry_space_group_name_H-M   P-1
_cell_length_a   2.76260244
_cell_length_b   4.59936792
_cell_length_c   4.74706443
_cell_angle_alpha   88.54558748
_cell_angle_beta   85.86316166
_cell_angle_gamma   87.27897282
_symmetry_Int_Tables_number   2
_chemical_formula_structural   CoF2
_chemical_formula_sum   'Co2 F4'
_cell_volume   60.07769355
_cell_formula_units_Z   2
loop_
 _symmetry_equiv_pos_site_id
 _symmetry_equiv_pos_as_xyz
  1  'x, y, z'
  2  '-x, -y, -z'
loop_
 _atom_site_type_symbol
 _atom_site_label
 _atom_site_symmetry_multiplicity
 _atom_site_fract_x
 _atom_site_fract_y
 _atom_site_fract_z
 _atom_site_occupancy
  Co  Co0  1  0.00000000  0.00000000  0.00000000  1
  Co  Co1  1  0.50000000  0.50000000  0.50000000  1
  F  F2  2  0.03737439  0.35183821  0.23494551  1
  F  F3  2  0.48674095  0.85768893  0.26826838  1
