# generated using pymatgen
data_CoMoP
_symmetry_space_group_name_H-M   P1
_cell_length_a   1.37273693
_cell_length_b   3.19437885
_cell_length_c   4.95538407
_cell_angle_alpha   85.06167724
_cell_angle_beta   85.42620375
_cell_angle_gamma   84.61017609
_symmetry_Int_Tables_number   1
_chemical_formula_structural   CoMoP
_chemical_formula_sum   'Co4 Mo4 P4'
_cell_volume   21.49686988
_cell_formula_units_Z   4
loop_
 _symmetry_equiv_pos_site_id
 _symmetry_equiv_pos_as_xyz
  1  'x, y, z'
loop_
 _atom_site_type_symbol
 _atom_site_label
 _atom_site_symmetry_multiplicity
 _atom_site_fract_x
 _atom_site_fract_y
 _atom_site_fract_z
 _atom_site_occupancy
  Co  Co0  1  0.36002225  0.87149322  0.00000000  1
  Co  Co1  1  0.36754024  0.49972340  0.47858357  1
  Co  Co2  1  0.87646443  0.25915217  0.88356113  1
  Co  Co3  1  0.92362446  0.23737842  0.27291432  1
  Mo  Mo4  1  0.17530063  0.31080002  0.45818093  1
  Mo  Mo5  1  0.22878835  0.40969241  0.94577688  1
  Mo  Mo6  1  0.57628202  0.29545358  0.00000000  1
  Mo  Mo7  1  0.75149733  0.94656754  0.49846843  1
  P  P8  1  0.00000000  0.00000000  0.00000000  1
  P  P9  1  0.13837785  0.64759159  0.69337487  1
  P  P10  1  0.15340483  0.23053527  0.51566386  1
  P  P11  1  0.45158255  0.65950692  0.85537457  1
