# generated using pymatgen
data_Cr
_symmetry_space_group_name_H-M   P-1
_cell_length_a   1.37463784
_cell_length_b   2.76920199
_cell_length_c   3.16320968
_cell_angle_alpha   103.66046143
_cell_angle_beta   93.93531036
_cell_angle_gamma   91.03551483
_symmetry_Int_Tables_number   2
_chemical_formula_structural   Cr
_chemical_formula_sum   Cr1
_cell_volume   11.66572464
_cell_formula_units_Z   1
loop_
 _symmetry_equiv_pos_site_id
 _symmetry_equiv_pos_as_xyz
  1  'x, y, z'
  2  '-x, -y, -z'
loop_
 _atom_site_type_symbol
 _atom_site_label
 _atom_site_symmetry_multiplicity
 _atom_site_fract_x
 _atom_site_fract_y
 _atom_site_fract_z
 _atom_site_occupancy
  Cr  Cr0  1  0.00000000  0.00000000  0.00000000  1
