# generated using pymatgen
data_CrIr3
_symmetry_space_group_name_H-M   P1
_cell_length_a   2.69548440
_cell_length_b   3.13856912
_cell_length_c   4.05522823
_cell_angle_alpha   95.45867920
_cell_angle_beta   99.62221527
_cell_angle_gamma   90.61546326
_symmetry_Int_Tables_number   1
_chemical_formula_structural   CrIr3
_chemical_formula_sum   'Cr1 Ir3'
_cell_volume   33.65862937
_cell_formula_units_Z   1
loop_
 _symmetry_equiv_pos_site_id
 _symmetry_equiv_pos_as_xyz
  1  'x, y, z'
loop_
 _atom_site_type_symbol
 _atom_site_label
 _atom_site_symmetry_multiplicity
 _atom_site_fract_x
 _atom_site_fract_y
 _atom_site_fract_z
 _atom_site_occupancy
  Cr  Cr0  1  0.00000000  0.00000000  0.00000000  1
  Ir  Ir1  1  0.00000000  0.34972805  0.62412053  1
  Ir  Ir2  1  0.35691655  0.39527953  0.00000000  1
  Ir  Ir3  1  0.40743589  0.00000000  0.43197957  1
