# generated using pymatgen
data_Cs2AlTlF6
_symmetry_space_group_name_H-M   C2/m
_cell_length_a   8.94306245
_cell_length_b   9.21074814
_cell_length_c   6.37680689
_cell_angle_alpha   90.00000000
_cell_angle_beta   133.60507279
_cell_angle_gamma   90.00000000
_symmetry_Int_Tables_number   12
_chemical_formula_structural   Cs2AlTlF6
_chemical_formula_sum   'Cs4 Al2 Tl2 F12'
_cell_volume   380.35529090
_cell_formula_units_Z   2
loop_
 _symmetry_equiv_pos_site_id
 _symmetry_equiv_pos_as_xyz
  1  'x, y, z'
  2  '-x, -y, -z'
  3  '-x, y, -z'
  4  'x, -y, z'
  5  'x+1/2, y+1/2, z'
  6  '-x+1/2, -y+1/2, -z'
  7  '-x+1/2, y+1/2, -z'
  8  'x+1/2, -y+1/2, z'
loop_
 _atom_site_type_symbol
 _atom_site_label
 _atom_site_symmetry_multiplicity
 _atom_site_fract_x
 _atom_site_fract_y
 _atom_site_fract_z
 _atom_site_occupancy
  Cs  Cs0  4  0.00000000  0.25036803  0.00000000  1
  Al  Al1  2  0.00000000  0.50000000  0.50000000  1
  Tl  Tl2  2  0.00000000  0.00000000  0.50000000  1
  F  F3  4  0.00000000  0.29900156  0.50000000  1
  F  F4  4  0.19443592  0.50000000  0.90087745  1
  F  F5  4  0.20744739  0.50000000  0.50557189  1
