# generated using pymatgen
data_Cs2GeCl6
_symmetry_space_group_name_H-M   P1
_cell_length_a   6.40335777
_cell_length_b   6.86229171
_cell_length_c   9.72892291
_cell_angle_alpha   77.57465528
_cell_angle_beta   73.25288154
_cell_angle_gamma   89.12452104
_symmetry_Int_Tables_number   1
_chemical_formula_structural   Cs2GeCl6
_chemical_formula_sum   'Cs2 Ge1 Cl6'
_cell_volume   399.28530050
_cell_formula_units_Z   1
loop_
 _symmetry_equiv_pos_site_id
 _symmetry_equiv_pos_as_xyz
  1  'x, y, z'
loop_
 _atom_site_type_symbol
 _atom_site_label
 _atom_site_symmetry_multiplicity
 _atom_site_fract_x
 _atom_site_fract_y
 _atom_site_fract_z
 _atom_site_occupancy
  Cs  Cs0  1  0.24454963  0.26369694  0.32967294  1
  Cs  Cs1  1  0.66612292  0.71167775  0.51786578  1
  Ge  Ge2  1  0.95315059  0.98792646  0.92629329  1
  Cl  Cl3  1  0.12526478  0.22557320  0.96781751  1
  Cl  Cl4  1  0.17337984  0.75223958  0.88854053  1
  Cl  Cl5  1  0.22235599  0.74559268  0.38791256  1
  Cl  Cl6  1  0.67436114  0.87809596  0.11120985  1
  Cl  Cl7  1  0.68969993  0.23338107  0.45007814  1
  Cl  Cl8  1  0.84670702  0.09725164  0.73484261  1
