# generated using pymatgen
data_Cs2InGaF6
_symmetry_space_group_name_H-M   P-1
_cell_length_a   6.29390090
_cell_length_b   6.52919094
_cell_length_c   6.53112867
_cell_angle_alpha   91.85301232
_cell_angle_beta   118.29112452
_cell_angle_gamma   118.08122450
_symmetry_Int_Tables_number   2
_chemical_formula_structural   Cs2InGaF6
_chemical_formula_sum   'Cs2 In1 Ga1 F6'
_cell_volume   196.91834242
_cell_formula_units_Z   1
loop_
 _symmetry_equiv_pos_site_id
 _symmetry_equiv_pos_as_xyz
  1  'x, y, z'
  2  '-x, -y, -z'
loop_
 _atom_site_type_symbol
 _atom_site_label
 _atom_site_symmetry_multiplicity
 _atom_site_fract_x
 _atom_site_fract_y
 _atom_site_fract_z
 _atom_site_occupancy
  Cs  Cs0  2  0.00034606  0.25027414  0.75295376  1
  In  In1  1  0.50000000  0.50000000  0.50000000  1
  Ga  Ga2  1  0.50000000  0.00000000  0.00000000  1
  F  F3  2  0.08113645  0.79238223  0.78675359  1
  F  F4  2  0.47791534  0.19604257  0.20907462  1
  F  F5  2  0.49725891  0.78405379  0.19939269  1
