# generated using pymatgen
data_Cs2IrF6
_symmetry_space_group_name_H-M   C2/m
_cell_length_a   10.68047446
_cell_length_b   6.47139007
_cell_length_c   5.17089424
_cell_angle_alpha   90.00000000
_cell_angle_beta   92.49193749
_cell_angle_gamma   90.00000000
_symmetry_Int_Tables_number   12
_chemical_formula_structural   Cs2IrF6
_chemical_formula_sum   'Cs4 Ir2 F12'
_cell_volume   357.06139302
_cell_formula_units_Z   2
loop_
 _symmetry_equiv_pos_site_id
 _symmetry_equiv_pos_as_xyz
  1  'x, y, z'
  2  '-x, -y, -z'
  3  '-x, y, -z'
  4  'x, -y, z'
  5  'x+1/2, y+1/2, z'
  6  '-x+1/2, -y+1/2, -z'
  7  '-x+1/2, y+1/2, -z'
  8  'x+1/2, -y+1/2, z'
loop_
 _atom_site_type_symbol
 _atom_site_label
 _atom_site_symmetry_multiplicity
 _atom_site_fract_x
 _atom_site_fract_y
 _atom_site_fract_z
 _atom_site_occupancy
  Cs  Cs0  4  0.16701583  0.00000000  0.78809056  1
  Ir  Ir1  2  0.00000000  0.50000000  0.50000000  1
  F  F2  8  0.07279763  0.27948020  0.28520464  1
  F  F3  4  0.15674839  0.50000000  0.71498090  1
