# generated using pymatgen
data_Cs2KYCl6
_symmetry_space_group_name_H-M   P-1
_cell_length_a   7.91552568
_cell_length_b   7.96138307
_cell_length_c   7.98186017
_cell_angle_alpha   60.84220687
_cell_angle_beta   61.04290821
_cell_angle_gamma   60.35321026
_symmetry_Int_Tables_number   2
_chemical_formula_structural   Cs2KYCl6
_chemical_formula_sum   'Cs2 K1 Y1 Cl6'
_cell_volume   361.63899990
_cell_formula_units_Z   1
loop_
 _symmetry_equiv_pos_site_id
 _symmetry_equiv_pos_as_xyz
  1  'x, y, z'
  2  '-x, -y, -z'
loop_
 _atom_site_type_symbol
 _atom_site_label
 _atom_site_symmetry_multiplicity
 _atom_site_fract_x
 _atom_site_fract_y
 _atom_site_fract_z
 _atom_site_occupancy
  Cs  Cs0  2  0.24806176  0.74880485  0.25894249  1
  K  K1  1  0.00000000  0.50000000  0.00000000  1
  Y  Y2  1  0.50000000  0.00000000  0.50000000  1
  Cl  Cl3  2  0.22878395  0.80827111  0.70507181  1
  Cl  Cl4  2  0.24676118  0.28173645  0.67863096  1
  Cl  Cl5  2  0.33617608  0.22252680  0.20419923  1
