# generated using pymatgen
data_Cs2KAsF6
_symmetry_space_group_name_H-M   P-1
_cell_length_a   6.16990097
_cell_length_b   6.41727428
_cell_length_c   6.66407418
_cell_angle_alpha   63.31555548
_cell_angle_beta   63.54061638
_cell_angle_gamma   61.74261589
_symmetry_Int_Tables_number   2
_chemical_formula_structural   Cs2KAsF6
_chemical_formula_sum   'Cs2 K1 As1 F6'
_cell_volume   198.35397644
_cell_formula_units_Z   1
loop_
 _symmetry_equiv_pos_site_id
 _symmetry_equiv_pos_as_xyz
  1  'x, y, z'
  2  '-x, -y, -z'
loop_
 _atom_site_type_symbol
 _atom_site_label
 _atom_site_symmetry_multiplicity
 _atom_site_fract_x
 _atom_site_fract_y
 _atom_site_fract_z
 _atom_site_occupancy
  Cs  Cs0  2  0.25663943  0.75881631  0.24418301  1
  K  K1  1  0.50000000  0.00000000  0.50000000  1
  As  As2  1  0.00000000  0.50000000  0.00000000  1
  F  F3  2  0.21342353  0.24614851  0.80657388  1
  F  F4  2  0.22102653  0.71832552  0.75778362  1
  F  F5  2  0.25566708  0.30704682  0.19703050  1
