# generated using pymatgen
data_Cs2KInCl6
_symmetry_space_group_name_H-M   P-1
_cell_length_a   7.78848731
_cell_length_b   7.83262297
_cell_length_c   7.85208168
_cell_angle_alpha   61.48828091
_cell_angle_beta   61.32784693
_cell_angle_gamma   60.55403200
_symmetry_Int_Tables_number   2
_chemical_formula_structural   Cs2KInCl6
_chemical_formula_sum   'Cs2 K1 In1 Cl6'
_cell_volume   347.22448279
_cell_formula_units_Z   1
loop_
 _symmetry_equiv_pos_site_id
 _symmetry_equiv_pos_as_xyz
  1  'x, y, z'
  2  '-x, -y, -z'
loop_
 _atom_site_type_symbol
 _atom_site_label
 _atom_site_symmetry_multiplicity
 _atom_site_fract_x
 _atom_site_fract_y
 _atom_site_fract_z
 _atom_site_occupancy
  Cs  Cs0  2  0.25076254  0.74961405  0.24082641  1
  K  K1  1  0.50000000  0.00000000  0.50000000  1
  In  In2  1  0.00000000  0.50000000  0.00000000  1
  Cl  Cl3  2  0.17010219  0.29937181  0.28095105  1
  Cl  Cl4  2  0.25075220  0.22406217  0.82446482  1
  Cl  Cl5  2  0.25732782  0.69646551  0.78927165  1
