# generated using pymatgen
data_Cs2NaInBr6
_symmetry_space_group_name_H-M   P-1
_cell_length_a   7.99026171
_cell_length_b   8.00474719
_cell_length_c   8.02397822
_cell_angle_alpha   60.09062714
_cell_angle_beta   60.34378657
_cell_angle_gamma   89.64575791
_symmetry_Int_Tables_number   2
_chemical_formula_structural   Cs2NaInBr6
_chemical_formula_sum   'Cs2 Na1 In1 Br6'
_cell_volume   366.34961429
_cell_formula_units_Z   1
loop_
 _symmetry_equiv_pos_site_id
 _symmetry_equiv_pos_as_xyz
  1  'x, y, z'
  2  '-x, -y, -z'
loop_
 _atom_site_type_symbol
 _atom_site_label
 _atom_site_symmetry_multiplicity
 _atom_site_fract_x
 _atom_site_fract_y
 _atom_site_fract_z
 _atom_site_occupancy
  Cs  Cs0  2  0.25051609  0.74846926  0.00061238  1
  Na  Na1  1  0.50000000  0.50000000  0.50000000  1
  In  In2  1  0.00000000  0.00000000  0.50000000  1
  Br  Br3  2  0.19832621  0.71838846  0.52610069  1
  Br  Br4  2  0.24525881  0.21635918  0.02385973  1
  Br  Br5  2  0.26995715  0.21027025  0.49390244  1
