# generated using pymatgen
data_Cs2NaTbCl6
_symmetry_space_group_name_H-M   P-1
_cell_length_a   7.69765156
_cell_length_b   7.69777992
_cell_length_c   7.70685862
_cell_angle_alpha   60.33974894
_cell_angle_beta   60.22201745
_cell_angle_gamma   60.14432745
_symmetry_Int_Tables_number   2
_chemical_formula_structural   Cs2NaTbCl6
_chemical_formula_sum   'Cs2 Na1 Tb1 Cl6'
_cell_volume   324.63213659
_cell_formula_units_Z   1
loop_
 _symmetry_equiv_pos_site_id
 _symmetry_equiv_pos_as_xyz
  1  'x, y, z'
  2  '-x, -y, -z'
loop_
 _atom_site_type_symbol
 _atom_site_label
 _atom_site_symmetry_multiplicity
 _atom_site_fract_x
 _atom_site_fract_y
 _atom_site_fract_z
 _atom_site_occupancy
  Cs  Cs0  2  0.25023578  0.75154934  0.25144185  1
  Na  Na1  1  0.50000000  0.00000000  0.50000000  1
  Tb  Tb2  1  0.00000000  0.50000000  0.00000000  1
  Cl  Cl3  2  0.22449686  0.76070829  0.76659249  1
  Cl  Cl4  2  0.23811816  0.28477875  0.72806909  1
  Cl  Cl5  2  0.26563010  0.24551155  0.22103180  1
