# generated using pymatgen
data_Cs2NaInF6
_symmetry_space_group_name_H-M   C2
_cell_length_a   8.36233989
_cell_length_b   9.29323532
_cell_length_c   4.48706866
_cell_angle_alpha   90.00000000
_cell_angle_beta   93.23050384
_cell_angle_gamma   90.00000000
_symmetry_Int_Tables_number   5
_chemical_formula_structural   Cs2NaInF6
_chemical_formula_sum   'Cs4 Na2 In2 F12'
_cell_volume   348.15030479
_cell_formula_units_Z   2
loop_
 _symmetry_equiv_pos_site_id
 _symmetry_equiv_pos_as_xyz
  1  'x, y, z'
  2  '-x, y, -z'
  3  'x, y, -z'
  4  '-x, y, z'
  5  'x+1/2, y+1/2, z'
  6  '-x+1/2, y+1/2, -z'
  7  'x+1/2, y+1/2, -z'
  8  '-x+1/2, y+1/2, z'
loop_
 _atom_site_type_symbol
 _atom_site_label
 _atom_site_symmetry_multiplicity
 _atom_site_fract_x
 _atom_site_fract_y
 _atom_site_fract_z
 _atom_site_occupancy
  Cs  Cs0  4  0.24740224  0.80286284  0.50056822  1
  Na  Na1  2  0.00000000  0.54663649  0.00000000  1
  In  In2  2  0.00000000  0.05508707  0.00000000  1
  F  F3  4  0.24222833  0.05854347  0.00227381  1
  F  F4  2  0.00000000  0.05474164  0.50000000  1
  F  F5  2  0.00000000  0.27930475  0.00000000  1
  F  F6  2  0.00000000  0.55220015  0.50000000  1
  F  F7  2  0.00000000  0.83112396  0.00000000  1
