# generated using pymatgen
data_Cs2NaBr7
_symmetry_space_group_name_H-M   P1
_cell_length_a   7.52043151
_cell_length_b   7.78352633
_cell_length_c   8.64203995
_cell_angle_alpha   111.79731873
_cell_angle_beta   111.95643952
_cell_angle_gamma   92.53141361
_symmetry_Int_Tables_number   1
_chemical_formula_structural   Cs2NaBr7
_chemical_formula_sum   'Cs2 Na1 Br7'
_cell_volume   425.67974938
_cell_formula_units_Z   1
loop_
 _symmetry_equiv_pos_site_id
 _symmetry_equiv_pos_as_xyz
  1  'x, y, z'
loop_
 _atom_site_type_symbol
 _atom_site_label
 _atom_site_symmetry_multiplicity
 _atom_site_fract_x
 _atom_site_fract_y
 _atom_site_fract_z
 _atom_site_occupancy
  Cs  Cs0  1  0.27992982  0.75393114  0.55926870  1
  Cs  Cs1  1  0.76068563  0.21737945  0.52522510  1
  Na  Na2  1  0.57408892  0.52395833  0.08014398  1
  Br  Br3  1  0.04578553  0.01860099  0.03360940  1
  Br  Br4  1  0.19618898  0.18433232  0.88102024  1
  Br  Br5  1  0.34394304  0.33856000  0.68342500  1
  Br  Br6  1  0.34893767  0.86915188  0.11702653  1
  Br  Br7  1  0.70899081  0.64562360  0.46197126  1
  Br  Br8  1  0.73609840  0.15629707  0.93852423  1
  Br  Br9  1  0.88789133  0.83902167  0.20023946  1
