# generated using pymatgen
data_Cs2RbGaF6
_symmetry_space_group_name_H-M   P1
_cell_length_a   5.31358464
_cell_length_b   6.07103088
_cell_length_c   6.44389212
_cell_angle_alpha   97.86603212
_cell_angle_beta   99.13902953
_cell_angle_gamma   91.08629817
_symmetry_Int_Tables_number   1
_chemical_formula_structural   Cs2RbGaF6
_chemical_formula_sum   'Cs2 Rb1 Ga1 F6'
_cell_volume   203.12715873
_cell_formula_units_Z   1
loop_
 _symmetry_equiv_pos_site_id
 _symmetry_equiv_pos_as_xyz
  1  'x, y, z'
loop_
 _atom_site_type_symbol
 _atom_site_label
 _atom_site_symmetry_multiplicity
 _atom_site_fract_x
 _atom_site_fract_y
 _atom_site_fract_z
 _atom_site_occupancy
  Cs  Cs0  1  0.33272899  0.38653790  0.90957501  1
  Cs  Cs1  1  0.38966328  0.89174084  0.41361700  1
  Rb  Rb2  1  0.86675758  0.39488373  0.40596818  1
  Ga  Ga3  1  0.90520081  0.89110136  0.90297523  1
  F  F4  1  0.25745244  0.87074810  0.93948182  1
  F  F5  1  0.35581043  0.37492846  0.36440516  1
  F  F6  1  0.72038698  0.65259206  0.73775482  1
  F  F7  1  0.79246440  0.15618305  0.02166910  1
  F  F8  1  0.87705043  0.75514894  0.14789904  1
  F  F9  1  0.92331787  0.02633903  0.65088280  1
