# generated using pymatgen
data_CsHoO2
_symmetry_space_group_name_H-M   C222_1
_cell_length_a   3.53931425
_cell_length_b   6.12619512
_cell_length_c   13.71732052
_cell_angle_alpha   90.00000000
_cell_angle_beta   90.00000000
_cell_angle_gamma   90.00000000
_symmetry_Int_Tables_number   20
_chemical_formula_structural   CsHoO2
_chemical_formula_sum   'Cs4 Ho4 O8'
_cell_volume   297.42620926
_cell_formula_units_Z   4
loop_
 _symmetry_equiv_pos_site_id
 _symmetry_equiv_pos_as_xyz
  1  'x, y, z'
  2  '-x, -y, z+1/2'
  3  'x, -y, -z'
  4  '-x, y, -z+1/2'
  5  'x+1/2, y+1/2, z'
  6  '-x+1/2, -y+1/2, z+1/2'
  7  'x+1/2, -y+1/2, -z'
  8  '-x+1/2, y+1/2, -z+1/2'
loop_
 _atom_site_type_symbol
 _atom_site_label
 _atom_site_symmetry_multiplicity
 _atom_site_fract_x
 _atom_site_fract_y
 _atom_site_fract_z
 _atom_site_occupancy
  Cs  Cs0  4  0.00000000  0.16567780  0.75000000  1
  Ho  Ho1  4  0.01284972  0.50000000  0.00000000  1
  O  O2  8  0.01582624  0.16882209  0.08142297  1
