# generated using pymatgen
data_CsRuF6
_symmetry_space_group_name_H-M   P-1
_cell_length_a   4.41069216
_cell_length_b   5.28421082
_cell_length_c   6.11614291
_cell_angle_alpha   94.86814501
_cell_angle_beta   99.85746064
_cell_angle_gamma   94.68600925
_symmetry_Int_Tables_number   2
_chemical_formula_structural   CsRuF6
_chemical_formula_sum   'Cs1 Ru1 F6'
_cell_volume   139.26411481
_cell_formula_units_Z   1
loop_
 _symmetry_equiv_pos_site_id
 _symmetry_equiv_pos_as_xyz
  1  'x, y, z'
  2  '-x, -y, -z'
loop_
 _atom_site_type_symbol
 _atom_site_label
 _atom_site_symmetry_multiplicity
 _atom_site_fract_x
 _atom_site_fract_y
 _atom_site_fract_z
 _atom_site_occupancy
  Cs  Cs0  1  0.00000000  0.00000000  0.00000000  1
  Ru  Ru1  1  0.50000000  0.50000000  0.50000000  1
  F  F2  2  0.19891977  0.56705785  0.25753426  1
  F  F3  2  0.24976268  0.21646678  0.55231040  1
  F  F4  2  0.34898982  0.71542226  0.71066909  1
