# generated using pymatgen
data_CsTeAu
_symmetry_space_group_name_H-M   P2_1/m
_cell_length_a   5.61736884
_cell_length_b   6.15032287
_cell_length_c   7.91185145
_cell_angle_alpha   90.00000000
_cell_angle_beta   99.20796603
_cell_angle_gamma   90.00000000
_symmetry_Int_Tables_number   11
_chemical_formula_structural   CsTeAu
_chemical_formula_sum   'Cs2 Te2 Au2'
_cell_volume   269.82134562
_cell_formula_units_Z   2
loop_
 _symmetry_equiv_pos_site_id
 _symmetry_equiv_pos_as_xyz
  1  'x, y, z'
  2  '-x, -y, -z'
  3  '-x, y+1/2, -z'
  4  'x, -y+1/2, z'
loop_
 _atom_site_type_symbol
 _atom_site_label
 _atom_site_symmetry_multiplicity
 _atom_site_fract_x
 _atom_site_fract_y
 _atom_site_fract_z
 _atom_site_occupancy
  Cs  Cs0  2  0.44772713  0.75000000  0.73094481  1
  Te  Te1  2  0.02898098  0.75000000  0.27361498  1
  Au  Au2  2  0.00000000  0.00000000  0.00000000  1
