# generated using pymatgen
data_Cu3HS4
_symmetry_space_group_name_H-M   P1
_cell_length_a   4.91599603
_cell_length_b   5.08224913
_cell_length_c   5.50486628
_cell_angle_alpha   98.40475108
_cell_angle_beta   98.25081319
_cell_angle_gamma   105.91128476
_symmetry_Int_Tables_number   1
_chemical_formula_structural   Cu3HS4
_chemical_formula_sum   'Cu3 H1 S4'
_cell_volume   128.38634916
_cell_formula_units_Z   1
loop_
 _symmetry_equiv_pos_site_id
 _symmetry_equiv_pos_as_xyz
  1  'x, y, z'
loop_
 _atom_site_type_symbol
 _atom_site_label
 _atom_site_symmetry_multiplicity
 _atom_site_fract_x
 _atom_site_fract_y
 _atom_site_fract_z
 _atom_site_occupancy
  Cu  Cu0  1  0.01837415  0.90128247  0.40451580  1
  Cu  Cu1  1  0.12409809  0.43847925  0.45952330  1
  Cu  Cu2  1  0.47611396  0.80485276  0.24636373  1
  H  H3  1  0.71387146  0.86370893  0.81964283  1
  S  S4  1  0.18167844  0.67967982  0.86369771  1
  S  S5  1  0.47586249  0.22867724  0.46826124  1
  S  S6  1  0.71496416  0.46424392  0.21560826  1
  S  S7  1  0.99914423  0.00259744  0.83373187  1
