# generated using pymatgen
data_Cu3SbS4
_symmetry_space_group_name_H-M   P1
_cell_length_a   5.02992700
_cell_length_b   5.87356860
_cell_length_c   6.26825275
_cell_angle_alpha   107.30851744
_cell_angle_beta   101.19457801
_cell_angle_gamma   107.68712828
_symmetry_Int_Tables_number   1
_chemical_formula_structural   Cu3SbS4
_chemical_formula_sum   'Cu3 Sb1 S4'
_cell_volume   159.99004637
_cell_formula_units_Z   1
loop_
 _symmetry_equiv_pos_site_id
 _symmetry_equiv_pos_as_xyz
  1  'x, y, z'
loop_
 _atom_site_type_symbol
 _atom_site_label
 _atom_site_symmetry_multiplicity
 _atom_site_fract_x
 _atom_site_fract_y
 _atom_site_fract_z
 _atom_site_occupancy
  Cu  Cu0  1  0.22055646  0.46156900  0.73932657  1
  Cu  Cu1  1  0.45805637  0.97007509  0.44912723  1
  Cu  Cu2  1  0.75880495  0.35529244  0.10323707  1
  Sb  Sb3  1  0.97094203  0.97842143  0.97345991  1
  S  S4  1  0.14682158  0.67051249  0.08771932  1
  S  S5  1  0.34678627  0.13350900  0.78808230  1
  S  S6  1  0.57922923  0.64696255  0.59265436  1
  S  S7  1  0.77133931  0.36089419  0.46882668  1
