# generated using pymatgen
data_CuBiSeO
_symmetry_space_group_name_H-M   C2/m
_cell_length_a   5.44312999
_cell_length_b   5.59801339
_cell_length_c   9.18944361
_cell_angle_alpha   90.00000000
_cell_angle_beta   90.55354044
_cell_angle_gamma   90.00000000
_symmetry_Int_Tables_number   12
_chemical_formula_structural   CuBiSeO
_chemical_formula_sum   'Cu4 Bi4 Se4 O4'
_cell_volume   279.99584553
_cell_formula_units_Z   4
loop_
 _symmetry_equiv_pos_site_id
 _symmetry_equiv_pos_as_xyz
  1  'x, y, z'
  2  '-x, -y, -z'
  3  '-x, y, -z'
  4  'x, -y, z'
  5  'x+1/2, y+1/2, z'
  6  '-x+1/2, -y+1/2, -z'
  7  '-x+1/2, y+1/2, -z'
  8  'x+1/2, -y+1/2, z'
loop_
 _atom_site_type_symbol
 _atom_site_label
 _atom_site_symmetry_multiplicity
 _atom_site_fract_x
 _atom_site_fract_y
 _atom_site_fract_z
 _atom_site_occupancy
  Cu  Cu0  4  0.00000000  0.25587762  0.50000000  1
  Bi  Bi1  4  0.24681689  0.50000000  0.85922386  1
  Se  Se2  4  0.24896558  0.00000000  0.67384454  1
  O  O3  4  0.00000000  0.24607918  0.00000000  1
