# generated using pymatgen
data_CuBr2
_symmetry_space_group_name_H-M   P-1
_cell_length_a   3.50008198
_cell_length_b   4.25484885
_cell_length_c   6.70882915
_cell_angle_alpha   96.31883959
_cell_angle_beta   97.67422217
_cell_angle_gamma   113.69270860
_symmetry_Int_Tables_number   2
_chemical_formula_structural   CuBr2
_chemical_formula_sum   'Cu1 Br2'
_cell_volume   89.18184719
_cell_formula_units_Z   1
loop_
 _symmetry_equiv_pos_site_id
 _symmetry_equiv_pos_as_xyz
  1  'x, y, z'
  2  '-x, -y, -z'
loop_
 _atom_site_type_symbol
 _atom_site_label
 _atom_site_symmetry_multiplicity
 _atom_site_fract_x
 _atom_site_fract_y
 _atom_site_fract_z
 _atom_site_occupancy
  Cu  Cu0  1  0.50000000  0.00000000  0.00000000  1
  Br  Br1  2  0.18703154  0.26245704  0.22962554  1
