# generated using pymatgen
data_CuPbF6
_symmetry_space_group_name_H-M   P-1
_cell_length_a   5.21148654
_cell_length_b   5.23766032
_cell_length_c   5.29803639
_cell_angle_alpha   61.90441413
_cell_angle_beta   66.64403586
_cell_angle_gamma   67.01090647
_symmetry_Int_Tables_number   2
_chemical_formula_structural   CuPbF6
_chemical_formula_sum   'Cu1 Pb1 F6'
_cell_volume   113.34976051
_cell_formula_units_Z   1
loop_
 _symmetry_equiv_pos_site_id
 _symmetry_equiv_pos_as_xyz
  1  'x, y, z'
  2  '-x, -y, -z'
loop_
 _atom_site_type_symbol
 _atom_site_label
 _atom_site_symmetry_multiplicity
 _atom_site_fract_x
 _atom_site_fract_y
 _atom_site_fract_z
 _atom_site_occupancy
  Cu  Cu0  1  0.00000000  0.50000000  0.00000000  1
  Pb  Pb1  1  0.50000000  0.00000000  0.50000000  1
  F  F2  2  0.21410883  0.73589047  0.62155271  1
  F  F3  2  0.25607753  0.12215744  0.86310759  1
  F  F4  2  0.26459731  0.40793166  0.21729277  1
