# generated using pymatgen
data_DyCo5
_symmetry_space_group_name_H-M   P1
_cell_length_a   3.12702847
_cell_length_b   3.90328670
_cell_length_c   3.96709067
_cell_angle_alpha   82.32411611
_cell_angle_beta   70.53931521
_cell_angle_gamma   78.68573761
_symmetry_Int_Tables_number   1
_chemical_formula_structural   DyCo5
_chemical_formula_sum   'Dy1 Co5'
_cell_volume   44.64554294
_cell_formula_units_Z   1
loop_
 _symmetry_equiv_pos_site_id
 _symmetry_equiv_pos_as_xyz
  1  'x, y, z'
loop_
 _atom_site_type_symbol
 _atom_site_label
 _atom_site_symmetry_multiplicity
 _atom_site_fract_x
 _atom_site_fract_y
 _atom_site_fract_z
 _atom_site_occupancy
  Dy  Dy0  1  0.00000000  0.00000000  0.00000000  1
  Co  Co1  1  -0.00000000  0.67297530  0.70844412  1
  Co  Co2  1  0.00000000  0.36625141  0.25943351  1
  Co  Co3  1  0.42004091  0.50514519  0.00000000  1
  Co  Co4  1  0.51314241  0.74154383  0.77553678  1
  Co  Co5  1  0.57076290  0.61362714  0.38637286  1
