# generated using pymatgen
data_DyInNi
_symmetry_space_group_name_H-M   Pm
_cell_length_a   7.23221114
_cell_length_b   3.63937073
_cell_length_c   7.51059916
_cell_angle_alpha   90.00000000
_cell_angle_beta   107.16185545
_cell_angle_gamma   90.00000000
_symmetry_Int_Tables_number   6
_chemical_formula_structural   DyInNi
_chemical_formula_sum   'Dy3 In3 Ni3'
_cell_volume   188.88232289
_cell_formula_units_Z   3
loop_
 _symmetry_equiv_pos_site_id
 _symmetry_equiv_pos_as_xyz
  1  'x, y, z'
  2  'x, -y, z'
loop_
 _atom_site_type_symbol
 _atom_site_label
 _atom_site_symmetry_multiplicity
 _atom_site_fract_x
 _atom_site_fract_y
 _atom_site_fract_z
 _atom_site_occupancy
  Dy  Dy0  1  0.05332388  0.00000000  0.42250776  1
  Dy  Dy1  1  0.40437080  0.00000000  0.88568551  1
  Dy  Dy2  1  0.58708148  0.00000000  0.50165284  1
  In  In3  1  0.00188444  0.50000000  0.76083737  1
  In  In4  1  0.23829687  0.50000000  0.17665082  1
  In  In5  1  0.72513722  0.50000000  0.16934580  1
  Ni  Ni6  1  0.32805904  0.50000000  0.58064267  1
  Ni  Ni7  1  0.65799698  0.50000000  0.80327840  1
  Ni  Ni8  1  0.91106887  0.00000000  0.99671664  1
