# generated using pymatgen
data_DyIr5
_symmetry_space_group_name_H-M   P1
_cell_length_a   1.81001258
_cell_length_b   3.63654923
_cell_length_c   4.19296792
_cell_angle_alpha   80.48253200
_cell_angle_beta   87.89830258
_cell_angle_gamma   89.17256165
_symmetry_Int_Tables_number   1
_chemical_formula_structural   DyIr5
_chemical_formula_sum   'Dy1 Ir5'
_cell_volume   27.19976714
_cell_formula_units_Z   1
loop_
 _symmetry_equiv_pos_site_id
 _symmetry_equiv_pos_as_xyz
  1  'x, y, z'
loop_
 _atom_site_type_symbol
 _atom_site_label
 _atom_site_symmetry_multiplicity
 _atom_site_fract_x
 _atom_site_fract_y
 _atom_site_fract_z
 _atom_site_occupancy
  Dy  Dy0  1  0.00000000  0.00000000  0.00000000  1
  Ir  Ir1  1  0.23130149  0.00000000  0.34172004  1
  Ir  Ir2  1  0.39765081  0.45531759  0.60234919  1
  Ir  Ir3  1  0.55468357  0.17991686  0.00000000  1
  Ir  Ir4  1  0.62609696  0.48672089  0.70703202  1
  Ir  Ir5  1  0.74725127  0.28421283  0.25274873  1
