# generated using pymatgen
data_DyNi
_symmetry_space_group_name_H-M   P1
_cell_length_a   4.16371489
_cell_length_b   6.27104425
_cell_length_c   8.00682068
_cell_angle_alpha   95.36054993
_cell_angle_beta   97.76485443
_cell_angle_gamma   91.69039917
_symmetry_Int_Tables_number   1
_chemical_formula_structural   DyNi
_chemical_formula_sum   'Dy4 Ni4'
_cell_volume   206.05384202
_cell_formula_units_Z   4
loop_
 _symmetry_equiv_pos_site_id
 _symmetry_equiv_pos_as_xyz
  1  'x, y, z'
loop_
 _atom_site_type_symbol
 _atom_site_label
 _atom_site_symmetry_multiplicity
 _atom_site_fract_x
 _atom_site_fract_y
 _atom_site_fract_z
 _atom_site_occupancy
  Dy  Dy0  1  -0.00000000  0.77485186  0.54253674  1
  Dy  Dy1  1  -0.00000000  0.24569821  0.88573760  1
  Dy  Dy2  1  0.45388448  0.71366161  0.16822615  1
  Dy  Dy3  1  0.61006135  0.35851389  0.31736296  1
  Ni  Ni4  1  0.00000000  0.07165891  0.39478481  1
  Ni  Ni5  1  0.10009554  0.42057204  0.14859223  1
  Ni  Ni6  1  0.47819397  -0.00000000  0.68674856  1
  Ni  Ni7  1  0.50367397  0.34840024  0.83943582  1
