# generated using pymatgen
data_Er(PRu)2
_symmetry_space_group_name_H-M   P1
_cell_length_a   3.83429337
_cell_length_b   4.04803705
_cell_length_c   5.09251261
_cell_angle_alpha   71.04891205
_cell_angle_beta   74.69097900
_cell_angle_gamma   78.93136597
_symmetry_Int_Tables_number   1
_chemical_formula_structural   Er(PRu)2
_chemical_formula_sum   'Er1 P2 Ru2'
_cell_volume   71.61491732
_cell_formula_units_Z   1
loop_
 _symmetry_equiv_pos_site_id
 _symmetry_equiv_pos_as_xyz
  1  'x, y, z'
loop_
 _atom_site_type_symbol
 _atom_site_label
 _atom_site_symmetry_multiplicity
 _atom_site_fract_x
 _atom_site_fract_y
 _atom_site_fract_z
 _atom_site_occupancy
  Er  Er0  1  0.00000000  0.00000000  0.00000000  1
  P  P1  1  0.36308491  0.34540457  0.32938296  1
  P  P2  1  0.63241816  0.74393702  0.81865132  1
  Ru  Ru3  1  0.28776395  0.65071130  0.60354257  1
  Ru  Ru4  1  0.77126449  0.55947742  0.48711920  1
