# generated using pymatgen
data_ErCo5
_symmetry_space_group_name_H-M   P1
_cell_length_a   2.01256514
_cell_length_b   2.29550910
_cell_length_c   3.10229818
_cell_angle_alpha   109.29915370
_cell_angle_beta   94.01185112
_cell_angle_gamma   95.81078339
_symmetry_Int_Tables_number   1
_chemical_formula_structural   ErCo5
_chemical_formula_sum   'Er1 Co5'
_cell_volume   13.37541315
_cell_formula_units_Z   1
loop_
 _symmetry_equiv_pos_site_id
 _symmetry_equiv_pos_as_xyz
  1  'x, y, z'
loop_
 _atom_site_type_symbol
 _atom_site_label
 _atom_site_symmetry_multiplicity
 _atom_site_fract_x
 _atom_site_fract_y
 _atom_site_fract_z
 _atom_site_occupancy
  Er  Er0  1  0.00000000  0.00000000  0.00000000  1
  Co  Co1  1  -0.00000000  0.34493598  0.23625562  1
  Co  Co2  1  -0.00000000  0.44284910  0.69028467  1
  Co  Co3  1  0.56031704  0.59659410  0.00000000  1
  Co  Co4  1  0.56550318  0.54457587  0.54457587  1
  Co  Co5  1  0.57895643  0.28368089  0.75538540  1
