# generated using pymatgen
data_ErMgCd2
_symmetry_space_group_name_H-M   C2/m
_cell_length_a   6.86140889
_cell_length_b   7.40421912
_cell_length_c   4.84392650
_cell_angle_alpha   90.00000000
_cell_angle_beta   132.88590596
_cell_angle_gamma   90.00000000
_symmetry_Int_Tables_number   12
_chemical_formula_structural   ErMgCd2
_chemical_formula_sum   'Er2 Mg2 Cd4'
_cell_volume   180.31108222
_cell_formula_units_Z   2
loop_
 _symmetry_equiv_pos_site_id
 _symmetry_equiv_pos_as_xyz
  1  'x, y, z'
  2  '-x, -y, -z'
  3  '-x, y, -z'
  4  'x, -y, z'
  5  '-x, -y, -2x+z'
  6  'x, y, 2x-z'
  7  'x, -y, 2x-z'
  8  '-x, y, -2x+z'
  9  'x+1/2, y+1/2, z'
  10  '-x+1/2, -y+1/2, -z'
  11  '-x+1/2, y+1/2, -z'
  12  'x+1/2, -y+1/2, z'
  13  '-x+1/2, -y+1/2, -2x+z'
  14  'x+1/2, y+1/2, 2x-z'
  15  'x+1/2, -y+1/2, 2x-z'
  16  '-x+1/2, y+1/2, -2x+z'
loop_
 _atom_site_type_symbol
 _atom_site_label
 _atom_site_symmetry_multiplicity
 _atom_site_fract_x
 _atom_site_fract_y
 _atom_site_fract_z
 _atom_site_occupancy
  Er  Er0  2  0.00000000  0.50000000  0.50000000  1
  Mg  Mg1  2  0.00000000  0.00000000  0.50000000  1
  Cd  Cd2  4  0.00000000  0.24584712  0.00000000  1
