# generated using pymatgen
data_Eu(HPt)2
_symmetry_space_group_name_H-M   P1
_cell_length_a   3.18124461
_cell_length_b   4.10852337
_cell_length_c   5.65226460
_cell_angle_alpha   84.00580597
_cell_angle_beta   75.55263519
_cell_angle_gamma   86.75123596
_symmetry_Int_Tables_number   1
_chemical_formula_structural   Eu(HPt)2
_chemical_formula_sum   'Eu1 H2 Pt2'
_cell_volume   71.11304588
_cell_formula_units_Z   1
loop_
 _symmetry_equiv_pos_site_id
 _symmetry_equiv_pos_as_xyz
  1  'x, y, z'
loop_
 _atom_site_type_symbol
 _atom_site_label
 _atom_site_symmetry_multiplicity
 _atom_site_fract_x
 _atom_site_fract_y
 _atom_site_fract_z
 _atom_site_occupancy
  Eu  Eu0  1  0.98679757  0.95529139  0.13176811  1
  H  H1  1  0.38526148  0.65159929  0.50031441  1
  H  H2  1  0.71517557  0.19576645  0.63857627  1
  Pt  Pt3  1  0.34033427  0.29184341  0.35914391  1
  Pt  Pt4  1  0.39652294  0.37435925  0.73743734  1
