# generated using pymatgen
data_Eu
_symmetry_space_group_name_H-M   P-1
_cell_length_a   4.60315672
_cell_length_b   4.80193996
_cell_length_c   6.60183477
_cell_angle_alpha   92.97246552
_cell_angle_beta   95.68878204
_cell_angle_gamma   96.75750973
_symmetry_Int_Tables_number   2
_chemical_formula_structural   Eu
_chemical_formula_sum   Eu2
_cell_volume   143.90181894
_cell_formula_units_Z   2
loop_
 _symmetry_equiv_pos_site_id
 _symmetry_equiv_pos_as_xyz
  1  'x, y, z'
  2  '-x, -y, -z'
loop_
 _atom_site_type_symbol
 _atom_site_label
 _atom_site_symmetry_multiplicity
 _atom_site_fract_x
 _atom_site_fract_y
 _atom_site_fract_z
 _atom_site_occupancy
  Eu  Eu0  2  0.26502834  0.23032157  0.32016902  1
