# generated using pymatgen
data_EuMg
_symmetry_space_group_name_H-M   P1
_cell_length_a   5.81593132
_cell_length_b   6.37272990
_cell_length_c   7.25391150
_cell_angle_alpha   93.71612019
_cell_angle_beta   99.58337402
_cell_angle_gamma   113.38814828
_symmetry_Int_Tables_number   1
_chemical_formula_structural   EuMg
_chemical_formula_sum   'Eu2 Mg2'
_cell_volume   240.76210045
_cell_formula_units_Z   2
loop_
 _symmetry_equiv_pos_site_id
 _symmetry_equiv_pos_as_xyz
  1  'x, y, z'
loop_
 _atom_site_type_symbol
 _atom_site_label
 _atom_site_symmetry_multiplicity
 _atom_site_fract_x
 _atom_site_fract_y
 _atom_site_fract_z
 _atom_site_occupancy
  Eu  Eu0  1  0.00000000  0.00000000  0.70815402  1
  Eu  Eu1  1  0.29489255  0.18393725  0.22282976  1
  Mg  Mg2  1  0.12650463  0.54552373  0.26607358  1
  Mg  Mg3  1  0.14327180  0.66021240  0.78108558  1
