# generated using pymatgen
data_Fe3SnC
_symmetry_space_group_name_H-M   P1
_cell_length_a   1.68479478
_cell_length_b   2.14172053
_cell_length_c   2.66082168
_cell_angle_alpha   70.90837860
_cell_angle_beta   80.90166473
_cell_angle_gamma   84.80760193
_symmetry_Int_Tables_number   1
_chemical_formula_structural   Fe3SnC
_chemical_formula_sum   'Fe3 Sn1 C1'
_cell_volume   8.95120970
_cell_formula_units_Z   1
loop_
 _symmetry_equiv_pos_site_id
 _symmetry_equiv_pos_as_xyz
  1  'x, y, z'
loop_
 _atom_site_type_symbol
 _atom_site_label
 _atom_site_symmetry_multiplicity
 _atom_site_fract_x
 _atom_site_fract_y
 _atom_site_fract_z
 _atom_site_occupancy
  Fe  Fe0  1  0.00000000  0.53824568  0.48220268  1
  Fe  Fe1  1  0.21281800  0.00000000  0.54024965  1
  Fe  Fe2  1  0.55229485  0.60669118  0.00000000  1
  Sn  Sn3  1  0.00000000  0.00000000  0.00000000  1
  C  C4  1  0.65329689  0.16109151  0.42290720  1
