# generated using pymatgen
data_FeB2Mo
_symmetry_space_group_name_H-M   P1
_cell_length_a   1.83547325
_cell_length_b   3.41622296
_cell_length_c   4.69440210
_cell_angle_alpha   109.37137092
_cell_angle_beta   100.70166218
_cell_angle_gamma   91.21242345
_symmetry_Int_Tables_number   1
_chemical_formula_structural   FeB2Mo
_chemical_formula_sum   'Fe2 B4 Mo2'
_cell_volume   27.17738900
_cell_formula_units_Z   2
loop_
 _symmetry_equiv_pos_site_id
 _symmetry_equiv_pos_as_xyz
  1  'x, y, z'
loop_
 _atom_site_type_symbol
 _atom_site_label
 _atom_site_symmetry_multiplicity
 _atom_site_fract_x
 _atom_site_fract_y
 _atom_site_fract_z
 _atom_site_occupancy
  Fe  Fe0  1  0.16680324  0.83319676  0.83319676  1
  Fe  Fe1  1  0.82423067  0.24225760  0.17576933  1
  B  B2  1  0.28217608  0.81386715  0.27910209  1
  B  B3  1  0.54808748  0.68727040  0.45191252  1
  B  B4  1  0.74017888  0.78829083  0.37576988  1
  B  B5  1  0.79021609  0.86807802  0.65829411  1
  Mo  Mo6  1  0.14672133  0.08747381  0.08747381  1
  Mo  Mo7  1  0.79380298  0.90105259  0.90105259  1
