# generated using pymatgen
data_FeB5Mo2
_symmetry_space_group_name_H-M   P1
_cell_length_a   1.48016715
_cell_length_b   2.03344120
_cell_length_c   2.47049468
_cell_angle_alpha   105.74841827
_cell_angle_beta   101.67502584
_cell_angle_gamma   95.79907132
_symmetry_Int_Tables_number   1
_chemical_formula_structural   FeB5Mo2
_chemical_formula_sum   'Fe1 B5 Mo2'
_cell_volume   6.91197961
_cell_formula_units_Z   1
loop_
 _symmetry_equiv_pos_site_id
 _symmetry_equiv_pos_as_xyz
  1  'x, y, z'
loop_
 _atom_site_type_symbol
 _atom_site_label
 _atom_site_symmetry_multiplicity
 _atom_site_fract_x
 _atom_site_fract_y
 _atom_site_fract_z
 _atom_site_occupancy
  Fe  Fe0  1  0.87417519  0.46097165  0.46097165  1
  B  B1  1  0.11555257  0.69980735  0.69980735  1
  B  B2  1  0.21655330  0.66679403  0.66679403  1
  B  B3  1  0.55494064  0.09507376  0.79023981  1
  B  B4  1  0.71505129  0.24076754  0.76285812  1
  B  B5  1  0.72016013  0.69156510  0.69156510  1
  Mo  Mo6  1  0.00000000  0.00000000  0.00000000  1
  Mo  Mo7  1  0.00000000  0.48146427  0.10386920  1
