# generated using pymatgen
data_FeB5
_symmetry_space_group_name_H-M   P1
_cell_length_a   2.55343834
_cell_length_b   2.74194100
_cell_length_c   4.38820934
_cell_angle_alpha   97.27385583
_cell_angle_beta   98.28314082
_cell_angle_gamma   100.89055092
_symmetry_Int_Tables_number   1
_chemical_formula_structural   FeB5
_chemical_formula_sum   'Fe1 B5'
_cell_volume   29.47898493
_cell_formula_units_Z   1
loop_
 _symmetry_equiv_pos_site_id
 _symmetry_equiv_pos_as_xyz
  1  'x, y, z'
loop_
 _atom_site_type_symbol
 _atom_site_label
 _atom_site_symmetry_multiplicity
 _atom_site_fract_x
 _atom_site_fract_y
 _atom_site_fract_z
 _atom_site_occupancy
  Fe  Fe0  1  0.11628139  0.11628139  0.22930801  1
  B  B1  1  0.53288299  0.53288299  0.88042504  1
  B  B2  1  0.53964055  0.53964055  0.26605439  1
  B  B3  1  0.72093362  0.35514623  0.75301367  1
  B  B4  1  0.73877311  0.73877311  0.59643155  1
  B  B5  1  0.79617608  0.49571329  0.79617608  1
