# generated using pymatgen
data_FePt3
_symmetry_space_group_name_H-M   P1
_cell_length_a   2.30596972
_cell_length_b   2.63436270
_cell_length_c   2.69989848
_cell_angle_alpha   85.16339111
_cell_angle_beta   84.16459656
_cell_angle_gamma   84.39176941
_symmetry_Int_Tables_number   1
_chemical_formula_structural   FePt3
_chemical_formula_sum   'Fe1 Pt3'
_cell_volume   16.19225933
_cell_formula_units_Z   1
loop_
 _symmetry_equiv_pos_site_id
 _symmetry_equiv_pos_as_xyz
  1  'x, y, z'
loop_
 _atom_site_type_symbol
 _atom_site_label
 _atom_site_symmetry_multiplicity
 _atom_site_fract_x
 _atom_site_fract_y
 _atom_site_fract_z
 _atom_site_occupancy
  Fe  Fe0  1  0.00000000  0.00000000  0.00000000  1
  Pt  Pt1  1  -0.00000000  0.49154627  0.48376107  1
  Pt  Pt2  1  0.43085665  0.00000000  0.19778824  1
  Pt  Pt3  1  0.60562912  0.52713078  0.00000000  1
