# generated using pymatgen
data_Ga3HPd
_symmetry_space_group_name_H-M   P1
_cell_length_a   6.17398882
_cell_length_b   6.57035303
_cell_length_c   6.61915302
_cell_angle_alpha   108.78469086
_cell_angle_beta   90.69533539
_cell_angle_gamma   93.05681610
_symmetry_Int_Tables_number   1
_chemical_formula_structural   Ga3HPd
_chemical_formula_sum   'Ga6 H2 Pd2'
_cell_volume   253.72215471
_cell_formula_units_Z   2
loop_
 _symmetry_equiv_pos_site_id
 _symmetry_equiv_pos_as_xyz
  1  'x, y, z'
loop_
 _atom_site_type_symbol
 _atom_site_label
 _atom_site_symmetry_multiplicity
 _atom_site_fract_x
 _atom_site_fract_y
 _atom_site_fract_z
 _atom_site_occupancy
  Ga  Ga0  1  -0.00000000  0.65855807  0.37443298  1
  Ga  Ga1  1  -0.00000000  0.82398963  0.70870292  1
  Ga  Ga2  1  -0.00000000  0.17497218  0.20823681  1
  Ga  Ga3  1  0.28453523  0.22886771  0.15918082  1
  Ga  Ga4  1  0.33768958  0.44953942  0.84188879  1
  Ga  Ga5  1  0.71918589  0.34044963  0.53849596  1
  H  H6  1  0.22088414  0.06620866  0.78258318  1
  Pd  Pd7  1  0.45851558  0.88752113  0.10962576  1
  H  H8  1  0.71956789  0.80532542  0.21537226  1
  Pd  Pd9  1  0.89620519  0.07366812  0.00000000  1
