# generated using pymatgen
data_GaCl3
_symmetry_space_group_name_H-M   P-1
_cell_length_a   7.38713445
_cell_length_b   7.40952339
_cell_length_c   7.44970529
_cell_angle_alpha   60.26638834
_cell_angle_beta   61.74795662
_cell_angle_gamma   71.74325420
_symmetry_Int_Tables_number   2
_chemical_formula_structural   GaCl3
_chemical_formula_sum   'Ga2 Cl6'
_cell_volume   310.24837561
_cell_formula_units_Z   2
loop_
 _symmetry_equiv_pos_site_id
 _symmetry_equiv_pos_as_xyz
  1  'x, y, z'
  2  '-x, -y, -z'
loop_
 _atom_site_type_symbol
 _atom_site_label
 _atom_site_symmetry_multiplicity
 _atom_site_fract_x
 _atom_site_fract_y
 _atom_site_fract_z
 _atom_site_occupancy
  Ga  Ga0  2  0.34229966  0.82360700  0.70842897  1
  Cl  Cl1  2  0.20243195  0.67404844  0.63162657  1
  Cl  Cl2  2  0.28246474  0.76561804  0.04130042  1
  Cl  Cl3  2  0.30136662  0.18484443  0.49758583  1
