# generated using pymatgen
data_Gd(PRu)2
_symmetry_space_group_name_H-M   P1
_cell_length_a   3.60263276
_cell_length_b   3.94540000
_cell_length_c   6.32805395
_cell_angle_alpha   80.53646088
_cell_angle_beta   81.79267120
_cell_angle_gamma   89.97689819
_symmetry_Int_Tables_number   1
_chemical_formula_structural   Gd(PRu)2
_chemical_formula_sum   'Gd1 P2 Ru2'
_cell_volume   87.78853400
_cell_formula_units_Z   1
loop_
 _symmetry_equiv_pos_site_id
 _symmetry_equiv_pos_as_xyz
  1  'x, y, z'
loop_
 _atom_site_type_symbol
 _atom_site_label
 _atom_site_symmetry_multiplicity
 _atom_site_fract_x
 _atom_site_fract_y
 _atom_site_fract_z
 _atom_site_occupancy
  Gd  Gd0  1  0.00000000  0.00000000  0.00000000  1
  P  P1  1  0.37646687  0.29875404  0.22496781  1
  P  P2  1  0.54359269  0.67224598  0.76769859  1
  Ru  Ru3  1  0.26630509  0.79233834  0.66617608  1
  Ru  Ru4  1  0.85752788  0.29975438  0.37205818  1
