# generated using pymatgen
data_Gd2Ga3
_symmetry_space_group_name_H-M   P1
_cell_length_a   3.15359974
_cell_length_b   3.30547667
_cell_length_c   5.95375586
_cell_angle_alpha   99.52883148
_cell_angle_beta   97.14367676
_cell_angle_gamma   92.84654236
_symmetry_Int_Tables_number   1
_chemical_formula_structural   Gd2Ga3
_chemical_formula_sum   'Gd2 Ga3'
_cell_volume   60.57471754
_cell_formula_units_Z   1
loop_
 _symmetry_equiv_pos_site_id
 _symmetry_equiv_pos_as_xyz
  1  'x, y, z'
loop_
 _atom_site_type_symbol
 _atom_site_label
 _atom_site_symmetry_multiplicity
 _atom_site_fract_x
 _atom_site_fract_y
 _atom_site_fract_z
 _atom_site_occupancy
  Gd  Gd0  1  0.32621673  0.64631510  0.76978308  1
  Gd  Gd1  1  0.92964137  0.21747023  0.31159544  1
  Ga  Ga2  1  0.00000000  0.00000000  0.00000000  1
  Ga  Ga3  1  0.23649263  0.58612400  0.28548089  1
  Ga  Ga4  1  0.84010816  0.32751793  0.87889552  1
