# generated using pymatgen
data_Gd3Al
_symmetry_space_group_name_H-M   P1
_cell_length_a   3.84705472
_cell_length_b   4.10502958
_cell_length_c   5.09950352
_cell_angle_alpha   104.49797821
_cell_angle_beta   100.84640503
_cell_angle_gamma   96.10661316
_symmetry_Int_Tables_number   1
_chemical_formula_structural   Gd3Al
_chemical_formula_sum   'Gd3 Al1'
_cell_volume   75.57118800
_cell_formula_units_Z   1
loop_
 _symmetry_equiv_pos_site_id
 _symmetry_equiv_pos_as_xyz
  1  'x, y, z'
loop_
 _atom_site_type_symbol
 _atom_site_label
 _atom_site_symmetry_multiplicity
 _atom_site_fract_x
 _atom_site_fract_y
 _atom_site_fract_z
 _atom_site_occupancy
  Gd  Gd0  1  -0.00000000  0.35322097  0.46460128  1
  Gd  Gd1  1  0.41866809  0.00000000  0.51235762  1
  Gd  Gd2  1  0.50757867  0.62333107  0.00000000  1
  Al  Al3  1  0.00000000  0.00000000  0.00000000  1
