# generated using pymatgen
data_Gd3I
_symmetry_space_group_name_H-M   C2
_cell_length_a   8.84899743
_cell_length_b   7.86546957
_cell_length_c   3.64336916
_cell_angle_alpha   90.00000000
_cell_angle_beta   90.86128577
_cell_angle_gamma   90.00000000
_symmetry_Int_Tables_number   5
_chemical_formula_structural   Gd3I
_chemical_formula_sum   'Gd6 I2'
_cell_volume   253.55538065
_cell_formula_units_Z   2
loop_
 _symmetry_equiv_pos_site_id
 _symmetry_equiv_pos_as_xyz
  1  'x, y, z'
  2  '-x, y, -z'
  3  'x+1/2, y+1/2, z'
  4  '-x+1/2, y+1/2, -z'
loop_
 _atom_site_type_symbol
 _atom_site_label
 _atom_site_symmetry_multiplicity
 _atom_site_fract_x
 _atom_site_fract_y
 _atom_site_fract_z
 _atom_site_occupancy
  Gd  Gd0  4  0.22075876  0.24062496  0.95680710  1
  Gd  Gd1  2  0.00000000  0.52967141  0.50000000  1
  I  I2  2  0.00000000  0.94844594  0.50000000  1
