# generated using pymatgen
data_Gd
_symmetry_space_group_name_H-M   P1
_cell_length_a   4.40938282
_cell_length_b   4.87078857
_cell_length_c   5.07259226
_cell_angle_alpha   93.73744202
_cell_angle_beta   90.17504883
_cell_angle_gamma   95.75386810
_symmetry_Int_Tables_number   1
_chemical_formula_structural   Gd
_chemical_formula_sum   Gd3
_cell_volume   108.16046290
_cell_formula_units_Z   3
loop_
 _symmetry_equiv_pos_site_id
 _symmetry_equiv_pos_as_xyz
  1  'x, y, z'
loop_
 _atom_site_type_symbol
 _atom_site_label
 _atom_site_symmetry_multiplicity
 _atom_site_fract_x
 _atom_site_fract_y
 _atom_site_fract_z
 _atom_site_occupancy
  Gd  Gd0  1  0.00000000  0.49357802  0.43217969  1
  Gd  Gd1  1  0.39477733  0.00000000  0.60731840  1
  Gd  Gd2  1  0.60191315  0.45229757  -0.00000000  1
