# generated using pymatgen
data_GdDy3Ni4
_symmetry_space_group_name_H-M   P1
_cell_length_a   3.98719954
_cell_length_b   5.50895834
_cell_length_c   7.51757526
_cell_angle_alpha   88.08261871
_cell_angle_beta   88.08550262
_cell_angle_gamma   88.04975128
_symmetry_Int_Tables_number   1
_chemical_formula_structural   GdDy3Ni4
_chemical_formula_sum   'Gd1 Dy3 Ni4'
_cell_volume   164.85177609
_cell_formula_units_Z   1
loop_
 _symmetry_equiv_pos_site_id
 _symmetry_equiv_pos_as_xyz
  1  'x, y, z'
loop_
 _atom_site_type_symbol
 _atom_site_label
 _atom_site_symmetry_multiplicity
 _atom_site_fract_x
 _atom_site_fract_y
 _atom_site_fract_z
 _atom_site_occupancy
  Gd  Gd0  1  0.00000000  0.70216650  0.57065430  1
  Dy  Dy1  1  0.00000000  0.88038075  0.15940660  1
  Dy  Dy2  1  0.33415461  0.23240647  0.83872095  1
  Dy  Dy3  1  0.53090712  0.42887700  0.44988251  1
  Ni  Ni4  1  -0.00000000  0.38815552  0.07132125  1
  Ni  Ni5  1  0.00000000  0.00000000  0.83610982  1
  Ni  Ni6  1  0.43078768  0.83384001  -0.00000000  1
  Ni  Ni7  1  0.64221847  0.85211110  0.32210678  1
