# generated using pymatgen
data_GdDy2Ni5
_symmetry_space_group_name_H-M   P1
_cell_length_a   3.86566353
_cell_length_b   6.16221762
_cell_length_c   8.02678013
_cell_angle_alpha   89.01526642
_cell_angle_beta   89.27141571
_cell_angle_gamma   76.12837219
_symmetry_Int_Tables_number   1
_chemical_formula_structural   GdDy2Ni5
_chemical_formula_sum   'Gd1 Dy2 Ni5'
_cell_volume   185.59524394
_cell_formula_units_Z   1
loop_
 _symmetry_equiv_pos_site_id
 _symmetry_equiv_pos_as_xyz
  1  'x, y, z'
loop_
 _atom_site_type_symbol
 _atom_site_label
 _atom_site_symmetry_multiplicity
 _atom_site_fract_x
 _atom_site_fract_y
 _atom_site_fract_z
 _atom_site_occupancy
  Gd  Gd0  1  0.00000000  0.33748782  0.69239956  1
  Dy  Dy1  1  -0.00000000  0.15718496  0.16125059  1
  Dy  Dy2  1  0.50384355  0.48329365  0.14894354  1
  Ni  Ni3  1  -0.00000000  0.48097205  0.10133183  1
  Ni  Ni4  1  0.00000000  0.00000000  0.71114558  1
  Ni  Ni5  1  0.51901072  0.00000000  0.00000000  1
  Ni  Ni6  1  0.57342130  0.18323958  0.28338963  1
  Ni  Ni7  1  0.65724373  0.38459253  -0.00000000  1
