# generated using pymatgen
data_GdInPt4
_symmetry_space_group_name_H-M   P1
_cell_length_a   5.79214859
_cell_length_b   5.97867060
_cell_length_c   7.01667792
_cell_angle_alpha   105.92463534
_cell_angle_beta   93.23839286
_cell_angle_gamma   111.67440033
_symmetry_Int_Tables_number   1
_chemical_formula_structural   GdInPt4
_chemical_formula_sum   'Gd1 In1 Pt4'
_cell_volume   213.72473604
_cell_formula_units_Z   1
loop_
 _symmetry_equiv_pos_site_id
 _symmetry_equiv_pos_as_xyz
  1  'x, y, z'
loop_
 _atom_site_type_symbol
 _atom_site_label
 _atom_site_symmetry_multiplicity
 _atom_site_fract_x
 _atom_site_fract_y
 _atom_site_fract_z
 _atom_site_occupancy
  Gd  Gd0  1  0.00000000  0.00000000  0.00000000  1
  In  In1  1  0.70665294  0.64117053  0.36112493  1
  Pt  Pt2  1  0.00000000  0.19887227  0.50443792  1
  Pt  Pt3  1  0.35527891  0.73616949  0.17664728  1
  Pt  Pt4  1  0.38848567  0.18076545  0.59712005  1
  Pt  Pt5  1  0.39686227  0.51304692  0.35465801  1
