# generated using pymatgen
data_GdIr
_symmetry_space_group_name_H-M   P1
_cell_length_a   4.20641232
_cell_length_b   4.32956886
_cell_length_c   4.56651306
_cell_angle_alpha   94.22177887
_cell_angle_beta   90.10482788
_cell_angle_gamma   91.92530060
_symmetry_Int_Tables_number   1
_chemical_formula_structural   GdIr
_chemical_formula_sum   'Gd1 Ir1'
_cell_volume   82.89185910
_cell_formula_units_Z   1
loop_
 _symmetry_equiv_pos_site_id
 _symmetry_equiv_pos_as_xyz
  1  'x, y, z'
loop_
 _atom_site_type_symbol
 _atom_site_label
 _atom_site_symmetry_multiplicity
 _atom_site_fract_x
 _atom_site_fract_y
 _atom_site_fract_z
 _atom_site_occupancy
  Gd  Gd0  1  0.51613048  0.45974362  0.58361864  1
  Ir  Ir1  1  0.00000000  0.00000000  0.00000000  1
