# generated using pymatgen
data_Ge5Rh7
_symmetry_space_group_name_H-M   P1
_cell_length_a   3.41896319
_cell_length_b   6.59006500
_cell_length_c   8.39548302
_cell_angle_alpha   94.32035065
_cell_angle_beta   93.87315369
_cell_angle_gamma   92.45257568
_symmetry_Int_Tables_number   1
_chemical_formula_structural   Ge5Rh7
_chemical_formula_sum   'Ge5 Rh7'
_cell_volume   187.97382740
_cell_formula_units_Z   1
loop_
 _symmetry_equiv_pos_site_id
 _symmetry_equiv_pos_as_xyz
  1  'x, y, z'
loop_
 _atom_site_type_symbol
 _atom_site_label
 _atom_site_symmetry_multiplicity
 _atom_site_fract_x
 _atom_site_fract_y
 _atom_site_fract_z
 _atom_site_occupancy
  Ge  Ge0  1  0.18512583  0.66262943  0.22655749  1
  Ge  Ge1  1  0.28191787  0.75061166  0.07083321  1
  Ge  Ge2  1  0.33522671  0.92815822  0.78773797  1
  Ge  Ge3  1  0.69509017  0.54317367  0.65256023  1
  Ge  Ge4  1  0.72238374  0.14326313  0.75601581  1
  Rh  Rh5  1  0.19984871  0.78226185  0.43097782  1
  Rh  Rh6  1  0.23512256  0.46126869  0.06700844  1
  Rh  Rh7  1  0.29360044  0.49627021  0.57525659  1
  Rh  Rh8  1  0.53210428  0.18554901  0.60693064  1
  Rh  Rh9  1  0.71541423  0.64995712  0.00000000  1
  Rh  Rh10  1  0.81093210  0.00000000  0.16967607  1
  Rh  Rh11  1  0.85120505  0.59267688  0.33596998  1
