# generated using pymatgen
data_GeRh2
_symmetry_space_group_name_H-M   P1
_cell_length_a   3.18070126
_cell_length_b   4.52103529
_cell_length_c   8.75379494
_cell_angle_alpha   96.89057274
_cell_angle_beta   100.09463942
_cell_angle_gamma   104.99192140
_symmetry_Int_Tables_number   1
_chemical_formula_structural   GeRh2
_chemical_formula_sum   'Ge4 Rh8'
_cell_volume   117.89054772
_cell_formula_units_Z   4
loop_
 _symmetry_equiv_pos_site_id
 _symmetry_equiv_pos_as_xyz
  1  'x, y, z'
loop_
 _atom_site_type_symbol
 _atom_site_label
 _atom_site_symmetry_multiplicity
 _atom_site_fract_x
 _atom_site_fract_y
 _atom_site_fract_z
 _atom_site_occupancy
  Ge  Ge0  1  0.02407080  0.85194707  0.31796265  1
  Ge  Ge1  1  0.04256409  0.24775577  0.05771148  1
  Ge  Ge2  1  0.46585235  0.42420709  0.84532961  1
  Ge  Ge3  1  0.69803810  0.59280536  -0.00000000  1
  Rh  Rh4  1  0.10163870  0.20605779  0.73814562  1
  Rh  Rh5  1  0.27596486  0.39263636  0.40516168  1
  Rh  Rh6  1  0.43977779  0.77673082  0.51868483  1
  Rh  Rh7  1  0.46822834  0.23931265  0.40286076  1
  Rh  Rh8  1  0.62723172  0.06411302  0.80915809  1
  Rh  Rh9  1  0.67109373  0.00000000  0.32076252  1
  Rh  Rh10  1  0.72773659  0.66359723  0.24917352  1
  Rh  Rh11  1  0.77030998  0.39047003  0.65697712  1
