# generated using pymatgen
data_H3BrO
_symmetry_space_group_name_H-M   P1
_cell_length_a   3.47617288
_cell_length_b   3.83464735
_cell_length_c   4.02792563
_cell_angle_alpha   79.92907637
_cell_angle_beta   83.86571183
_cell_angle_gamma   83.77904541
_symmetry_Int_Tables_number   1
_chemical_formula_structural   H3BrO
_chemical_formula_sum   'H3 Br1 O1'
_cell_volume   52.34086102
_cell_formula_units_Z   1
loop_
 _symmetry_equiv_pos_site_id
 _symmetry_equiv_pos_as_xyz
  1  'x, y, z'
loop_
 _atom_site_type_symbol
 _atom_site_label
 _atom_site_symmetry_multiplicity
 _atom_site_fract_x
 _atom_site_fract_y
 _atom_site_fract_z
 _atom_site_occupancy
  H  H0  1  0.40329839  0.68591415  0.64574303  1
  H  H1  1  0.73774617  0.68136256  0.31182690  1
  H  H2  1  0.74247168  0.34292903  0.64809712  1
  Br  Br3  1  0.05903114  0.98886980  0.95839956  1
  O  O4  1  0.56948235  0.52648099  0.49511442  1
