# generated using pymatgen
data_Hf3P5
_symmetry_space_group_name_H-M   P1
_cell_length_a   3.25702333
_cell_length_b   3.54068271
_cell_length_c   9.17050424
_cell_angle_alpha   87.31829590
_cell_angle_beta   88.97913838
_cell_angle_gamma   64.91046810
_symmetry_Int_Tables_number   1
_chemical_formula_structural   Hf3P5
_chemical_formula_sum   'Hf3 P5'
_cell_volume   95.67153666
_cell_formula_units_Z   1
loop_
 _symmetry_equiv_pos_site_id
 _symmetry_equiv_pos_as_xyz
  1  'x, y, z'
loop_
 _atom_site_type_symbol
 _atom_site_label
 _atom_site_symmetry_multiplicity
 _atom_site_fract_x
 _atom_site_fract_y
 _atom_site_fract_z
 _atom_site_occupancy
  Hf  Hf0  1  0.12225503  0.42689067  0.00000000  1
  Hf  Hf1  1  0.38783443  0.17190230  0.06776464  1
  Hf  Hf2  1  0.66549289  0.14656490  0.59390324  1
  P  P3  1  0.00000000  0.00000000  0.00000000  1
  P  P4  1  0.00000000  0.15288344  0.84711656  1
  P  P5  1  0.42377880  0.79835960  0.59298643  1
  P  P6  1  0.49408293  0.84127420  0.38708425  1
  P  P7  1  0.71851349  0.44821882  0.24695396  1
