# generated using pymatgen
data_HfGeTe
_symmetry_space_group_name_H-M   P2_1/m
_cell_length_a   3.74758928
_cell_length_b   3.74647772
_cell_length_c   10.21849594
_cell_angle_alpha   90.00000000
_cell_angle_beta   90.56191372
_cell_angle_gamma   90.00000000
_symmetry_Int_Tables_number   11
_chemical_formula_structural   HfGeTe
_chemical_formula_sum   'Hf2 Ge2 Te2'
_cell_volume   143.46343781
_cell_formula_units_Z   2
loop_
 _symmetry_equiv_pos_site_id
 _symmetry_equiv_pos_as_xyz
  1  'x, y, z'
  2  '-x, -y, -z'
  3  '-x, y+1/2, -z'
  4  'x, -y+1/2, z'
loop_
 _atom_site_type_symbol
 _atom_site_label
 _atom_site_symmetry_multiplicity
 _atom_site_fract_x
 _atom_site_fract_y
 _atom_site_fract_z
 _atom_site_occupancy
  Hf  Hf0  2  0.24358204  0.25000000  0.79077533  1
  Ge  Ge1  2  0.25025447  0.75000000  0.99986998  1
  Te  Te2  2  0.25978280  0.25000000  0.34002622  1
