# generated using pymatgen
data_HfP
_symmetry_space_group_name_H-M   P1
_cell_length_a   3.44896003
_cell_length_b   3.54273873
_cell_length_c   12.06842897
_cell_angle_alpha   97.54973994
_cell_angle_beta   98.10779848
_cell_angle_gamma   89.98733845
_symmetry_Int_Tables_number   1
_chemical_formula_structural   HfP
_chemical_formula_sum   'Hf4 P4'
_cell_volume   144.69660946
_cell_formula_units_Z   4
loop_
 _symmetry_equiv_pos_site_id
 _symmetry_equiv_pos_as_xyz
  1  'x, y, z'
loop_
 _atom_site_type_symbol
 _atom_site_label
 _atom_site_symmetry_multiplicity
 _atom_site_fract_x
 _atom_site_fract_y
 _atom_site_fract_z
 _atom_site_occupancy
  Hf  Hf0  1  0.01800933  0.10636378  0.47504560  1
  Hf  Hf1  1  0.37031169  0.99090521  0.20475363  1
  Hf  Hf2  1  0.60023886  0.67800388  0.63923285  1
  Hf  Hf3  1  0.72059743  0.27381327  0.88648573  1
  P  P4  1  0.13756591  0.21105001  0.71418831  1
  P  P5  1  0.25943016  0.81009383  0.96766480  1
  P  P6  1  0.82629953  0.46918087  0.11794221  1
  P  P7  1  0.92198415  0.53616331  0.31809659  1
