# generated using pymatgen
data_HfRu3
_symmetry_space_group_name_H-M   P1
_cell_length_a   2.78332615
_cell_length_b   3.75702119
_cell_length_c   4.04976749
_cell_angle_alpha   94.13668823
_cell_angle_beta   100.93667603
_cell_angle_gamma   98.19902802
_symmetry_Int_Tables_number   1
_chemical_formula_structural   HfRu3
_chemical_formula_sum   'Hf1 Ru3'
_cell_volume   40.93938276
_cell_formula_units_Z   1
loop_
 _symmetry_equiv_pos_site_id
 _symmetry_equiv_pos_as_xyz
  1  'x, y, z'
loop_
 _atom_site_type_symbol
 _atom_site_label
 _atom_site_symmetry_multiplicity
 _atom_site_fract_x
 _atom_site_fract_y
 _atom_site_fract_z
 _atom_site_occupancy
  Hf  Hf0  1  0.00000000  0.00000000  0.00000000  1
  Ru  Ru1  1  -0.00000000  0.37702647  0.37751478  1
  Ru  Ru2  1  0.20120752  0.66798705  0.00000000  1
  Ru  Ru3  1  0.37469015  0.00000000  0.64759174  1
