# generated using pymatgen
data_HIr3
_symmetry_space_group_name_H-M   P1
_cell_length_a   2.27063489
_cell_length_b   2.30644178
_cell_length_c   3.35041670
_cell_angle_alpha   75.49368464
_cell_angle_beta   71.96141044
_cell_angle_gamma   80.45772552
_symmetry_Int_Tables_number   1
_chemical_formula_structural   HIr3
_chemical_formula_sum   'H1 Ir3'
_cell_volume   16.07777208
_cell_formula_units_Z   1
loop_
 _symmetry_equiv_pos_site_id
 _symmetry_equiv_pos_as_xyz
  1  'x, y, z'
loop_
 _atom_site_type_symbol
 _atom_site_label
 _atom_site_symmetry_multiplicity
 _atom_site_fract_x
 _atom_site_fract_y
 _atom_site_fract_z
 _atom_site_occupancy
  H  H0  1  0.00000000  0.00000000  0.00000000  1
  Ir  Ir1  1  0.58956796  0.39179391  -0.00000000  1
  Ir  Ir2  1  0.59778243  0.32340038  0.40221757  1
  Ir  Ir3  1  0.91577482  0.00000000  0.49019688  1
