# generated using pymatgen
data_HIr5
_symmetry_space_group_name_H-M   P1
_cell_length_a   3.68761134
_cell_length_b   4.01743937
_cell_length_c   4.27699661
_cell_angle_alpha   112.96054077
_cell_angle_beta   95.09697723
_cell_angle_gamma   94.97707367
_symmetry_Int_Tables_number   1
_chemical_formula_structural   HIr5
_chemical_formula_sum   'H1 Ir5'
_cell_volume   57.60049360
_cell_formula_units_Z   1
loop_
 _symmetry_equiv_pos_site_id
 _symmetry_equiv_pos_as_xyz
  1  'x, y, z'
loop_
 _atom_site_type_symbol
 _atom_site_label
 _atom_site_symmetry_multiplicity
 _atom_site_fract_x
 _atom_site_fract_y
 _atom_site_fract_z
 _atom_site_occupancy
  H  H0  1  0.00000000  0.00000000  0.00000000  1
  Ir  Ir1  1  0.00000000  0.21433467  0.85282636  1
  Ir  Ir2  1  0.00000000  0.83600545  0.33168930  1
  Ir  Ir3  1  0.43465602  0.34232253  0.48552817  1
  Ir  Ir4  1  0.50885421  0.55242598  0.00000000  1
  Ir  Ir5  1  0.54167318  0.00000000  0.57630634  1
