# generated using pymatgen
data_HoCu4Au
_symmetry_space_group_name_H-M   Imm2
_cell_length_a   4.75919960
_cell_length_b   5.14365955
_cell_length_c   7.23044150
_cell_angle_alpha   90.00000000
_cell_angle_beta   90.00000000
_cell_angle_gamma   90.00000000
_symmetry_Int_Tables_number   44
_chemical_formula_structural   HoCu4Au
_chemical_formula_sum   'Ho2 Cu8 Au2'
_cell_volume   176.99905689
_cell_formula_units_Z   2
loop_
 _symmetry_equiv_pos_site_id
 _symmetry_equiv_pos_as_xyz
  1  'x, y, z'
  2  '-x, -y, z'
  3  '-x, y, z'
  4  'x, -y, z'
  5  'x+1/2, y+1/2, z+1/2'
  6  '-x+1/2, -y+1/2, z+1/2'
  7  '-x+1/2, y+1/2, z+1/2'
  8  'x+1/2, -y+1/2, z+1/2'
loop_
 _atom_site_type_symbol
 _atom_site_label
 _atom_site_symmetry_multiplicity
 _atom_site_fract_x
 _atom_site_fract_y
 _atom_site_fract_z
 _atom_site_occupancy
  Ho  Ho0  2  0.00000000  0.50000000  0.30255124  1
  Cu  Cu1  4  0.00000000  0.25209111  0.67135981  1
  Cu  Cu2  4  0.24692351  0.50000000  0.92300380  1
  Au  Au3  2  0.00000000  0.00000000  0.05679121  1
