# generated using pymatgen
data_HoFe3C
_symmetry_space_group_name_H-M   P1
_cell_length_a   3.30675077
_cell_length_b   3.37772703
_cell_length_c   3.47861838
_cell_angle_alpha   88.10070038
_cell_angle_beta   85.59827423
_cell_angle_gamma   80.03607178
_symmetry_Int_Tables_number   1
_chemical_formula_structural   HoFe3C
_chemical_formula_sum   'Ho1 Fe3 C1'
_cell_volume   38.14702307
_cell_formula_units_Z   1
loop_
 _symmetry_equiv_pos_site_id
 _symmetry_equiv_pos_as_xyz
  1  'x, y, z'
loop_
 _atom_site_type_symbol
 _atom_site_label
 _atom_site_symmetry_multiplicity
 _atom_site_fract_x
 _atom_site_fract_y
 _atom_site_fract_z
 _atom_site_occupancy
  Ho  Ho0  1  0.00000000  0.00000000  0.00000000  1
  Fe  Fe1  1  0.00000000  0.42987674  0.62302232  1
  Fe  Fe2  1  0.25749367  -0.00000000  0.63143760  1
  Fe  Fe3  1  0.48084146  0.20672026  0.00000000  1
  C  C4  1  0.25749743  0.24349502  0.75431144  1
