# generated using pymatgen
data_HoHg2H
_symmetry_space_group_name_H-M   P1
_cell_length_a   3.64709947
_cell_length_b   3.76455217
_cell_length_c   3.80021763
_cell_angle_alpha   63.92440564
_cell_angle_beta   68.93996765
_cell_angle_gamma   67.05695588
_symmetry_Int_Tables_number   1
_chemical_formula_structural   HoHg2H
_chemical_formula_sum   'Ho1 Hg2 H1'
_cell_volume   42.02824602
_cell_formula_units_Z   1
loop_
 _symmetry_equiv_pos_site_id
 _symmetry_equiv_pos_as_xyz
  1  'x, y, z'
loop_
 _atom_site_type_symbol
 _atom_site_label
 _atom_site_symmetry_multiplicity
 _atom_site_fract_x
 _atom_site_fract_y
 _atom_site_fract_z
 _atom_site_occupancy
  Ho  Ho0  1  0.21236485  0.19814563  0.34022555  1
  Hg  Hg1  1  0.00000000  0.00000000  0.00000000  1
  Hg  Hg2  1  0.41763374  0.44942069  0.62014464  1
  H  H3  1  0.74381387  0.82467067  0.65749758  1
