# generated using pymatgen
data_HoZnRh
_symmetry_space_group_name_H-M   P1
_cell_length_a   5.42539978
_cell_length_b   6.11256599
_cell_length_c   8.06874180
_cell_angle_alpha   95.54753876
_cell_angle_beta   100.02493286
_cell_angle_gamma   91.89178467
_symmetry_Int_Tables_number   1
_chemical_formula_structural   HoZnRh
_chemical_formula_sum   'Ho4 Zn4 Rh4'
_cell_volume   261.92570075
_cell_formula_units_Z   4
loop_
 _symmetry_equiv_pos_site_id
 _symmetry_equiv_pos_as_xyz
  1  'x, y, z'
loop_
 _atom_site_type_symbol
 _atom_site_label
 _atom_site_symmetry_multiplicity
 _atom_site_fract_x
 _atom_site_fract_y
 _atom_site_fract_z
 _atom_site_occupancy
  Ho  Ho0  1  0.17297596  0.50324568  0.12925524  1
  Ho  Ho1  1  0.17372400  0.03930843  0.14870226  1
  Ho  Ho2  1  0.64180243  0.55120170  0.85937750  1
  Ho  Ho3  1  0.80171150  0.00000000  0.42567146  1
  Zn  Zn4  1  0.23354340  0.10458696  0.95081198  1
  Zn  Zn5  1  0.27333474  0.69763637  0.64366329  1
  Zn  Zn6  1  0.69012928  0.33643484  0.55912882  1
  Zn  Zn7  1  0.82507470  0.88255888  -0.00000000  1
  Rh  Rh8  1  0.24042547  0.20656943  0.57244205  1
  Rh  Rh9  1  0.49174488  0.83751282  0.86523759  1
  Rh  Rh10  1  0.58783501  0.21861887  -0.00000000  1
  Rh  Rh11  1  0.87658823  0.60268053  0.46280715  1
