# generated using pymatgen
data_HSe2
_symmetry_space_group_name_H-M   P1
_cell_length_a   6.03231238
_cell_length_b   7.15762985
_cell_length_c   9.63371196
_cell_angle_alpha   70.21826494
_cell_angle_beta   77.22908797
_cell_angle_gamma   83.65653982
_symmetry_Int_Tables_number   1
_chemical_formula_structural   HSe2
_chemical_formula_sum   'H4 Se8'
_cell_volume   381.43794476
_cell_formula_units_Z   4
loop_
 _symmetry_equiv_pos_site_id
 _symmetry_equiv_pos_as_xyz
  1  'x, y, z'
loop_
 _atom_site_type_symbol
 _atom_site_label
 _atom_site_symmetry_multiplicity
 _atom_site_fract_x
 _atom_site_fract_y
 _atom_site_fract_z
 _atom_site_occupancy
  H  H0  1  0.11126108  0.36397751  0.61073573  1
  H  H1  1  0.32904924  0.29255905  0.09680035  1
  H  H2  1  0.51318259  0.13064654  0.41739797  1
  H  H3  1  0.89424836  0.17762471  0.12362640  1
  Se  Se4  1  0.18839606  0.48426493  0.06812317  1
  Se  Se5  1  0.20222323  0.46766226  0.44818632  1
  Se  Se6  1  0.33532348  0.59861363  0.80638597  1
  Se  Se7  1  0.53094979  0.95678837  0.09306329  1
  Se  Se8  1  0.56822096  0.31196635  0.44418275  1
  Se  Se9  1  0.58940984  0.04435008  0.82709484  1
  Se  Se10  1  0.68602733  0.73761022  0.78183124  1
  Se  Se11  1  0.88279347  0.95747797  0.16318213  1
