# generated using pymatgen
data_In
_symmetry_space_group_name_H-M   P-1
_cell_length_a   3.18104229
_cell_length_b   3.47247511
_cell_length_c   5.67441069
_cell_angle_alpha   93.19161398
_cell_angle_beta   96.15675578
_cell_angle_gamma   116.81223399
_symmetry_Int_Tables_number   2
_chemical_formula_structural   In
_chemical_formula_sum   In2
_cell_volume   55.23491565
_cell_formula_units_Z   2
loop_
 _symmetry_equiv_pos_site_id
 _symmetry_equiv_pos_as_xyz
  1  'x, y, z'
  2  '-x, -y, -z'
loop_
 _atom_site_type_symbol
 _atom_site_label
 _atom_site_symmetry_multiplicity
 _atom_site_fract_x
 _atom_site_fract_y
 _atom_site_fract_z
 _atom_site_occupancy
  In  In0  2  0.10263788  0.29372053  0.25103986  1
