# generated using pymatgen
data_InAgO2
_symmetry_space_group_name_H-M   P1
_cell_length_a   3.21220963
_cell_length_b   3.34210329
_cell_length_c   12.70170732
_cell_angle_alpha   88.81563012
_cell_angle_beta   86.31897230
_cell_angle_gamma   61.31614643
_symmetry_Int_Tables_number   1
_chemical_formula_structural   InAgO2
_chemical_formula_sum   'In2 Ag2 O4'
_cell_volume   119.37097210
_cell_formula_units_Z   2
loop_
 _symmetry_equiv_pos_site_id
 _symmetry_equiv_pos_as_xyz
  1  'x, y, z'
loop_
 _atom_site_type_symbol
 _atom_site_label
 _atom_site_symmetry_multiplicity
 _atom_site_fract_x
 _atom_site_fract_y
 _atom_site_fract_z
 _atom_site_occupancy
  In  In0  1  0.15377203  0.01004998  0.49206882  1
  In  In1  1  0.18250570  0.99082993  0.99175715  1
  Ag  Ag2  1  0.50348584  0.33358838  0.74187525  1
  Ag  Ag3  1  0.83639823  0.66574490  0.24193749  1
  O  O4  1  0.46156793  0.35313543  0.57830547  1
  O  O5  1  0.53625141  0.32530509  0.90563548  1
  O  O6  1  0.82870150  0.65665796  0.07784961  1
  O  O7  1  0.84610590  0.66683260  0.40599951  1
