# generated using pymatgen
data_InHO2
_symmetry_space_group_name_H-M   Pc
_cell_length_a   3.25363265
_cell_length_b   4.70390161
_cell_length_c   5.94893948
_cell_angle_alpha   90.00000000
_cell_angle_beta   117.28959196
_cell_angle_gamma   90.00000000
_symmetry_Int_Tables_number   7
_chemical_formula_structural   InHO2
_chemical_formula_sum   'In2 H2 O4'
_cell_volume   80.91363997
_cell_formula_units_Z   2
loop_
 _symmetry_equiv_pos_site_id
 _symmetry_equiv_pos_as_xyz
  1  'x, y, z'
  2  'x, -y, z+1/2'
loop_
 _atom_site_type_symbol
 _atom_site_label
 _atom_site_symmetry_multiplicity
 _atom_site_fract_x
 _atom_site_fract_y
 _atom_site_fract_z
 _atom_site_occupancy
  In  In0  2  0.61260261  0.27128559  0.87917495  1
  H  H1  2  0.13853896  0.19995615  0.39712979  1
  O  O2  2  0.24385158  0.02105471  0.51369019  1
  O  O3  2  0.98694853  0.47154500  0.24439646  1
