# generated using pymatgen
data_InHPt4
_symmetry_space_group_name_H-M   P1
_cell_length_a   4.84856917
_cell_length_b   4.93920816
_cell_length_c   5.04333735
_cell_angle_alpha   105.70075278
_cell_angle_beta   108.35435340
_cell_angle_gamma   112.40437663
_symmetry_Int_Tables_number   1
_chemical_formula_structural   InHPt4
_chemical_formula_sum   'In1 H1 Pt4'
_cell_volume   94.90018933
_cell_formula_units_Z   1
loop_
 _symmetry_equiv_pos_site_id
 _symmetry_equiv_pos_as_xyz
  1  'x, y, z'
loop_
 _atom_site_type_symbol
 _atom_site_label
 _atom_site_symmetry_multiplicity
 _atom_site_fract_x
 _atom_site_fract_y
 _atom_site_fract_z
 _atom_site_occupancy
  In  In0  1  0.71378857  0.42285705  0.10785764  1
  H  H1  1  0.00000000  0.00000000  0.00000000  1
  Pt  Pt2  1  0.25323629  0.70434177  0.17283195  1
  Pt  Pt3  1  0.35320330  0.84426630  0.84426630  1
  Pt  Pt4  1  0.43728602  0.43728602  0.68306673  1
  Pt  Pt5  1  0.75807878  0.24411789  0.65341106  1
