# generated using pymatgen
data_Ir3Se8
_symmetry_space_group_name_H-M   P1
_cell_length_a   4.99169350
_cell_length_b   5.64585590
_cell_length_c   6.63904762
_cell_angle_alpha   91.66095734
_cell_angle_beta   104.92199707
_cell_angle_gamma   107.16385651
_symmetry_Int_Tables_number   1
_chemical_formula_structural   Ir3Se8
_chemical_formula_sum   'Ir3 Se8'
_cell_volume   171.62250158
_cell_formula_units_Z   1
loop_
 _symmetry_equiv_pos_site_id
 _symmetry_equiv_pos_as_xyz
  1  'x, y, z'
loop_
 _atom_site_type_symbol
 _atom_site_label
 _atom_site_symmetry_multiplicity
 _atom_site_fract_x
 _atom_site_fract_y
 _atom_site_fract_z
 _atom_site_occupancy
  Ir  Ir0  1  0.13374960  0.52226055  0.25787395  1
  Ir  Ir1  1  0.31022447  0.66292036  0.00000000  1
  Ir  Ir2  1  0.45828736  0.00000000  0.48712748  1
  Se  Se3  1  0.12420550  0.16169256  0.51763821  1
  Se  Se4  1  0.17409635  0.86831287  0.03183711  1
  Se  Se5  1  0.18169285  0.26738870  0.08887511  1
  Se  Se6  1  0.37872225  0.18272454  0.86119995  1
  Se  Se7  1  0.44374537  0.42686546  0.72434884  1
  Se  Se8  1  0.46183515  0.27127945  0.32287192  1
  Se  Se9  1  0.85636210  0.00000000  0.35748059  1
  Se  Se10  1  0.87284553  0.70298463  -0.00000000  1
