# generated using pymatgen
data_Ir4Se7
_symmetry_space_group_name_H-M   P1
_cell_length_a   5.00464725
_cell_length_b   5.32070208
_cell_length_c   6.14769888
_cell_angle_alpha   82.84217834
_cell_angle_beta   86.34485626
_cell_angle_gamma   83.72571564
_symmetry_Int_Tables_number   1
_chemical_formula_structural   Ir4Se7
_chemical_formula_sum   'Ir4 Se7'
_cell_volume   161.24496106
_cell_formula_units_Z   1
loop_
 _symmetry_equiv_pos_site_id
 _symmetry_equiv_pos_as_xyz
  1  'x, y, z'
loop_
 _atom_site_type_symbol
 _atom_site_label
 _atom_site_symmetry_multiplicity
 _atom_site_fract_x
 _atom_site_fract_y
 _atom_site_fract_z
 _atom_site_occupancy
  Ir  Ir0  1  0.00000000  0.64321733  0.31918985  1
  Ir  Ir1  1  0.17458615  0.00000000  0.77232876  1
  Ir  Ir2  1  0.60094798  0.67824978  0.00000000  1
  Ir  Ir3  1  0.82533669  0.00000000  0.75955060  1
  Se  Se4  1  0.00000000  0.84044546  0.48609596  1
  Se  Se5  1  0.35363719  0.48111281  0.08200848  1
  Se  Se6  1  0.51628852  0.72584200  0.48064476  1
  Se  Se7  1  0.56980914  0.87643623  0.83903566  1
  Se  Se8  1  0.57363915  0.53152573  0.52521950  1
  Se  Se9  1  0.82872230  0.15434141  0.11246687  1
  Se  Se10  1  0.93534529  0.68022579  0.00000000  1
