# generated using pymatgen
data_Ir
_symmetry_space_group_name_H-M   P1
_cell_length_a   5.92033052
_cell_length_b   6.37492418
_cell_length_c   6.75019455
_cell_angle_alpha   98.61872101
_cell_angle_beta   93.32236481
_cell_angle_gamma   101.17439270
_symmetry_Int_Tables_number   1
_chemical_formula_structural   Ir
_chemical_formula_sum   Ir3
_cell_volume   246.11539358
_cell_formula_units_Z   3
loop_
 _symmetry_equiv_pos_site_id
 _symmetry_equiv_pos_as_xyz
  1  'x, y, z'
loop_
 _atom_site_type_symbol
 _atom_site_label
 _atom_site_symmetry_multiplicity
 _atom_site_fract_x
 _atom_site_fract_y
 _atom_site_fract_z
 _atom_site_occupancy
  Ir  Ir0  1  0.00000000  0.54755813  0.64906877  1
  Ir  Ir1  1  0.67468369  0.50465149  -0.00000000  1
  Ir  Ir2  1  0.67559838  0.12499559  0.68791026  1
