# generated using pymatgen
data_K(PRu)2
_symmetry_space_group_name_H-M   P1
_cell_length_a   3.27847695
_cell_length_b   3.31788635
_cell_length_c   4.71692963
_cell_angle_alpha   103.35208563
_cell_angle_beta   105.39808050
_cell_angle_gamma   96.47198486
_symmetry_Int_Tables_number   1
_chemical_formula_structural   K(PRu)2
_chemical_formula_sum   'K1 P2 Ru2'
_cell_volume   47.29442777
_cell_formula_units_Z   1
loop_
 _symmetry_equiv_pos_site_id
 _symmetry_equiv_pos_as_xyz
  1  'x, y, z'
loop_
 _atom_site_type_symbol
 _atom_site_label
 _atom_site_symmetry_multiplicity
 _atom_site_fract_x
 _atom_site_fract_y
 _atom_site_fract_z
 _atom_site_occupancy
  K  K0  1  0.00000000  0.00000000  0.00000000  1
  P  P1  1  0.34891921  0.25532854  0.69188559  1
  P  P2  1  0.56376863  0.51686695  0.23158288  1
  Ru  Ru3  1  0.16801628  0.69835508  0.55493733  1
  Ru  Ru4  1  0.83794838  0.32876819  0.52701774  1
