# generated using pymatgen
data_K2NaVF6
_symmetry_space_group_name_H-M   P-1
_cell_length_a   5.68481931
_cell_length_b   5.97141523
_cell_length_c   5.97536139
_cell_angle_alpha   92.04363315
_cell_angle_beta   117.88034845
_cell_angle_gamma   117.99929966
_symmetry_Int_Tables_number   2
_chemical_formula_structural   K2NaVF6
_chemical_formula_sum   'K2 Na1 V1 F6'
_cell_volume   149.60934635
_cell_formula_units_Z   1
loop_
 _symmetry_equiv_pos_site_id
 _symmetry_equiv_pos_as_xyz
  1  'x, y, z'
  2  '-x, -y, -z'
loop_
 _atom_site_type_symbol
 _atom_site_label
 _atom_site_symmetry_multiplicity
 _atom_site_fract_x
 _atom_site_fract_y
 _atom_site_fract_z
 _atom_site_occupancy
  K  K0  2  0.49511456  0.25173631  0.75248930  1
  Na  Na1  1  0.00000000  0.50000000  0.50000000  1
  V  V2  1  0.00000000  0.00000000  0.00000000  1
  F  F3  2  0.01024173  0.26945881  0.80994210  1
  F  F4  2  0.01560138  0.20672098  0.27613578  1
  F  F5  2  0.46806826  0.21200159  0.21778027  1
