# generated using pymatgen
data_K2O
_symmetry_space_group_name_H-M   P1
_cell_length_a   3.98364640
_cell_length_b   5.70994705
_cell_length_c   7.12097907
_cell_angle_alpha   78.64807409
_cell_angle_beta   78.13790423
_cell_angle_gamma   71.33769723
_symmetry_Int_Tables_number   1
_chemical_formula_structural   K2O
_chemical_formula_sum   'K4 O2'
_cell_volume   148.67512878
_cell_formula_units_Z   2
loop_
 _symmetry_equiv_pos_site_id
 _symmetry_equiv_pos_as_xyz
  1  'x, y, z'
loop_
 _atom_site_type_symbol
 _atom_site_label
 _atom_site_symmetry_multiplicity
 _atom_site_fract_x
 _atom_site_fract_y
 _atom_site_fract_z
 _atom_site_occupancy
  K  K0  1  0.09458217  0.61050118  0.33706538  1
  K  K1  1  0.41184608  0.08158586  0.14631763  1
  K  K2  1  0.65720359  0.09368642  0.65976206  1
  K  K3  1  0.77979826  0.55981992  0.93243066  1
  O  O4  1  0.14152795  0.88736189  0.90147325  1
  O  O5  1  0.73719052  0.33080261  0.30492125  1
