# generated using pymatgen
data_KRb2CrF6
_symmetry_space_group_name_H-M   P-1
_cell_length_a   5.82548595
_cell_length_b   6.17267620
_cell_length_c   6.35025585
_cell_angle_alpha   63.89431471
_cell_angle_beta   63.97833126
_cell_angle_gamma   63.89217954
_symmetry_Int_Tables_number   2
_chemical_formula_structural   KRb2CrF6
_chemical_formula_sum   'K1 Rb2 Cr1 F6'
_cell_volume   175.42063894
_cell_formula_units_Z   1
loop_
 _symmetry_equiv_pos_site_id
 _symmetry_equiv_pos_as_xyz
  1  'x, y, z'
  2  '-x, -y, -z'
loop_
 _atom_site_type_symbol
 _atom_site_label
 _atom_site_symmetry_multiplicity
 _atom_site_fract_x
 _atom_site_fract_y
 _atom_site_fract_z
 _atom_site_occupancy
  Rb  Rb0  2  0.25298503  0.74462700  0.74516238  1
  K  K1  1  0.50000000  0.00000000  0.00000000  1
  Cr  Cr2  1  0.00000000  0.50000000  0.50000000  1
  F  F3  2  0.17057948  0.76541681  0.32476812  1
  F  F4  2  0.21773752  0.35044647  0.22834822  1
  F  F5  2  0.27177440  0.28486070  0.66597221  1
