# generated using pymatgen
data_KRb2MoF6
_symmetry_space_group_name_H-M   P-1
_cell_length_a   6.29168357
_cell_length_b   6.38971760
_cell_length_c   6.46690353
_cell_angle_alpha   91.28366973
_cell_angle_beta   117.77841984
_cell_angle_gamma   118.34393153
_symmetry_Int_Tables_number   2
_chemical_formula_structural   KRb2MoF6
_chemical_formula_sum   'K1 Rb2 Mo1 F6'
_cell_volume   192.27820465
_cell_formula_units_Z   1
loop_
 _symmetry_equiv_pos_site_id
 _symmetry_equiv_pos_as_xyz
  1  'x, y, z'
  2  '-x, -y, -z'
loop_
 _atom_site_type_symbol
 _atom_site_label
 _atom_site_symmetry_multiplicity
 _atom_site_fract_x
 _atom_site_fract_y
 _atom_site_fract_z
 _atom_site_occupancy
  Rb  Rb0  2  0.00332838  0.25435789  0.73934654  1
  K  K1  1  0.50000000  0.00000000  0.00000000  1
  Mo  Mo2  1  0.50000000  0.50000000  0.50000000  1
  F  F3  2  0.05143651  0.32177763  0.29918283  1
  F  F4  2  0.45582294  0.31303209  0.19887072  1
  F  F5  2  0.46289564  0.20531281  0.64959549  1
