# generated using pymatgen
data_La2MgAl
_symmetry_space_group_name_H-M   P1
_cell_length_a   4.25006321
_cell_length_b   5.58169813
_cell_length_c   5.60762318
_cell_angle_alpha   110.28286105
_cell_angle_beta   103.33076954
_cell_angle_gamma   106.50919949
_symmetry_Int_Tables_number   1
_chemical_formula_structural   La2MgAl
_chemical_formula_sum   'La2 Mg1 Al1'
_cell_volume   111.33733253
_cell_formula_units_Z   1
loop_
 _symmetry_equiv_pos_site_id
 _symmetry_equiv_pos_as_xyz
  1  'x, y, z'
loop_
 _atom_site_type_symbol
 _atom_site_label
 _atom_site_symmetry_multiplicity
 _atom_site_fract_x
 _atom_site_fract_y
 _atom_site_fract_z
 _atom_site_occupancy
  La  La0  1  0.04967580  0.12796883  0.16280743  1
  La  La1  1  0.49017487  0.99435873  0.58672936  1
  Mg  Mg2  1  0.17991996  0.56345862  0.83395782  1
  Al  Al3  1  0.75048572  0.55845452  0.19685488  1
