# generated using pymatgen
data_La3InC
_symmetry_space_group_name_H-M   Cm
_cell_length_a   7.36116173
_cell_length_b   7.35108352
_cell_length_c   5.32336833
_cell_angle_alpha   90.00000000
_cell_angle_beta   90.09858944
_cell_angle_gamma   90.00000000
_symmetry_Int_Tables_number   8
_chemical_formula_structural   La3InC
_chemical_formula_sum   'La6 In2 C2'
_cell_volume   288.06042008
_cell_formula_units_Z   2
loop_
 _symmetry_equiv_pos_site_id
 _symmetry_equiv_pos_as_xyz
  1  'x, y, z'
  2  'x, -y, z'
  3  'x+1/2, y+1/2, z'
  4  'x+1/2, -y+1/2, z'
loop_
 _atom_site_type_symbol
 _atom_site_label
 _atom_site_symmetry_multiplicity
 _atom_site_fract_x
 _atom_site_fract_y
 _atom_site_fract_z
 _atom_site_occupancy
  La  La0  4  0.24559457  0.25901976  0.43082295  1
  La  La1  2  0.47538132  0.00000000  0.93533148  1
  In  In2  2  0.48507161  0.50000000  0.92995234  1
  C  C3  2  0.47873700  0.00000000  0.39998225  1
