# generated using pymatgen
data_LaCo5
_symmetry_space_group_name_H-M   P1
_cell_length_a   2.47809005
_cell_length_b   5.19922686
_cell_length_c   7.56710809
_cell_angle_alpha   105.78524360
_cell_angle_beta   98.41369411
_cell_angle_gamma   96.83193970
_symmetry_Int_Tables_number   1
_chemical_formula_structural   LaCo5
_chemical_formula_sum   'La1 Co5'
_cell_volume   91.50944200
_cell_formula_units_Z   1
loop_
 _symmetry_equiv_pos_site_id
 _symmetry_equiv_pos_as_xyz
  1  'x, y, z'
loop_
 _atom_site_type_symbol
 _atom_site_label
 _atom_site_symmetry_multiplicity
 _atom_site_fract_x
 _atom_site_fract_y
 _atom_site_fract_z
 _atom_site_occupancy
  La  La0  1  0.00000000  0.00000000  0.00000000  1
  Co  Co1  1  0.23648262  0.76386756  0.23648262  1
  Co  Co2  1  0.36574402  0.00000000  0.78349087  1
  Co  Co3  1  0.62551165  0.35322976  0.00000000  1
  Co  Co4  1  0.69220388  0.46266595  0.69220388  1
  Co  Co5  1  0.90749216  0.47202617  0.38498271  1
