# generated using pymatgen
data_LaInPt4
_symmetry_space_group_name_H-M   P1
_cell_length_a   4.87065189
_cell_length_b   5.20348367
_cell_length_c   5.36358404
_cell_angle_alpha   75.39288854
_cell_angle_beta   70.58792799
_cell_angle_gamma   81.47147178
_symmetry_Int_Tables_number   1
_chemical_formula_structural   LaInPt4
_chemical_formula_sum   'La1 In1 Pt4'
_cell_volume   123.75491348
_cell_formula_units_Z   1
loop_
 _symmetry_equiv_pos_site_id
 _symmetry_equiv_pos_as_xyz
  1  'x, y, z'
loop_
 _atom_site_type_symbol
 _atom_site_label
 _atom_site_symmetry_multiplicity
 _atom_site_fract_x
 _atom_site_fract_y
 _atom_site_fract_z
 _atom_site_occupancy
  La  La0  1  0.00000000  0.00000000  0.00000000  1
  In  In1  1  0.85470811  0.74944076  0.67796308  1
  Pt  Pt2  1  0.30778992  0.38657242  0.86058408  1
  Pt  Pt3  1  0.46412051  0.40986675  0.28489673  1
  Pt  Pt4  1  0.50960666  0.89807174  0.29971907  1
  Pt  Pt5  1  0.87946627  0.36327469  0.42085746  1
