# generated using pymatgen
data_LaMgCu
_symmetry_space_group_name_H-M   P1
_cell_length_a   4.26299953
_cell_length_b   6.73408651
_cell_length_c   7.00085282
_cell_angle_alpha   117.16193329
_cell_angle_beta   96.24719628
_cell_angle_gamma   91.56533051
_symmetry_Int_Tables_number   1
_chemical_formula_structural   LaMgCu
_chemical_formula_sum   'La3 Mg3 Cu3'
_cell_volume   177.07598742
_cell_formula_units_Z   3
loop_
 _symmetry_equiv_pos_site_id
 _symmetry_equiv_pos_as_xyz
  1  'x, y, z'
loop_
 _atom_site_type_symbol
 _atom_site_label
 _atom_site_symmetry_multiplicity
 _atom_site_fract_x
 _atom_site_fract_y
 _atom_site_fract_z
 _atom_site_occupancy
  La  La0  1  -0.00000000  0.21801871  0.21801871  1
  La  La1  1  -0.00000000  0.96429724  0.67689735  1
  La  La2  1  -0.00000000  0.63623762  0.00000000  1
  Mg  Mg3  1  0.36700806  0.54844850  0.00000000  1
  Mg  Mg4  1  0.50846237  0.73859793  0.17649466  1
  Mg  Mg5  1  0.71935022  0.72720245  0.72720245  1
  Cu  Cu6  1  0.00000000  0.00000000  0.00000000  1
  Cu  Cu7  1  0.54116881  0.91796339  0.27535927  1
  Cu  Cu8  1  0.55475461  0.37431556  0.67857599  1
