# generated using pymatgen
data_LaRu3
_symmetry_space_group_name_H-M   P1
_cell_length_a   2.28709555
_cell_length_b   3.52032232
_cell_length_c   3.86884975
_cell_angle_alpha   88.32877350
_cell_angle_beta   82.07369995
_cell_angle_gamma   83.24400330
_symmetry_Int_Tables_number   1
_chemical_formula_structural   LaRu3
_chemical_formula_sum   'La1 Ru3'
_cell_volume   30.63484802
_cell_formula_units_Z   1
loop_
 _symmetry_equiv_pos_site_id
 _symmetry_equiv_pos_as_xyz
  1  'x, y, z'
loop_
 _atom_site_type_symbol
 _atom_site_label
 _atom_site_symmetry_multiplicity
 _atom_site_fract_x
 _atom_site_fract_y
 _atom_site_fract_z
 _atom_site_occupancy
  La  La0  1  0.00000000  0.00000000  0.00000000  1
  Ru  Ru1  1  0.00000000  0.53536412  0.41557449  1
  Ru  Ru2  1  0.45143721  0.00000000  0.53363496  1
  Ru  Ru3  1  0.51465654  0.53013012  -0.00000000  1
