# generated using pymatgen
data_Li2TlAu
_symmetry_space_group_name_H-M   C2/m
_cell_length_a   7.90010554
_cell_length_b   4.66883114
_cell_length_c   4.49776698
_cell_angle_alpha   90.00000000
_cell_angle_beta   123.72331328
_cell_angle_gamma   90.00000000
_symmetry_Int_Tables_number   12
_chemical_formula_structural   Li2TlAu
_chemical_formula_sum   'Li4 Tl2 Au2'
_cell_volume   137.98106313
_cell_formula_units_Z   2
loop_
 _symmetry_equiv_pos_site_id
 _symmetry_equiv_pos_as_xyz
  1  'x, y, z'
  2  '-x, -y, -z'
  3  'x, -y, 2x-z'
  4  '-x, y, -2x+z'
  5  '-x, -y, -2x+z'
  6  'x, y, 2x-z'
  7  '-x, y, -z'
  8  'x, -y, z'
  9  'x+1/2, y+1/2, z'
  10  '-x+1/2, -y+1/2, -z'
  11  'x+1/2, -y+1/2, 2x-z'
  12  '-x+1/2, y+1/2, -2x+z'
  13  '-x+1/2, -y+1/2, -2x+z'
  14  'x+1/2, y+1/2, 2x-z'
  15  '-x+1/2, y+1/2, -z'
  16  'x+1/2, -y+1/2, z'
loop_
 _atom_site_type_symbol
 _atom_site_label
 _atom_site_symmetry_multiplicity
 _atom_site_fract_x
 _atom_site_fract_y
 _atom_site_fract_z
 _atom_site_occupancy
  Li  Li0  4  0.24715002  0.50000000  0.74769077  1
  Tl  Tl1  2  0.00000000  0.00000000  0.50000000  1
  Au  Au2  2  0.00000000  0.50000000  0.00000000  1
