# generated using pymatgen
data_LiAsF6
_symmetry_space_group_name_H-M   P-1
_cell_length_a   4.76636439
_cell_length_b   4.86178563
_cell_length_c   5.25181137
_cell_angle_alpha   63.63194850
_cell_angle_beta   64.96514453
_cell_angle_gamma   63.96055644
_symmetry_Int_Tables_number   2
_chemical_formula_structural   LiAsF6
_chemical_formula_sum   'Li1 As1 F6'
_cell_volume   93.95168884
_cell_formula_units_Z   1
loop_
 _symmetry_equiv_pos_site_id
 _symmetry_equiv_pos_as_xyz
  1  'x, y, z'
  2  '-x, -y, -z'
loop_
 _atom_site_type_symbol
 _atom_site_label
 _atom_site_symmetry_multiplicity
 _atom_site_fract_x
 _atom_site_fract_y
 _atom_site_fract_z
 _atom_site_occupancy
  Li  Li0  1  0.50000000  0.50000000  0.00000000  1
  As  As1  1  0.00000000  0.00000000  0.50000000  1
  F  F2  2  0.11867720  0.35080490  0.27068532  1
  F  F3  2  0.22882057  0.90523913  0.73327727  1
  F  F4  2  0.34651348  0.77576062  0.28067701  1
