# generated using pymatgen
data_LiN
_symmetry_space_group_name_H-M   P1
_cell_length_a   3.31841230
_cell_length_b   4.53190470
_cell_length_c   5.93929337
_cell_angle_alpha   96.97093519
_cell_angle_beta   100.31554677
_cell_angle_gamma   95.26581573
_symmetry_Int_Tables_number   1
_chemical_formula_structural   LiN
_chemical_formula_sum   'Li3 N3'
_cell_volume   86.63488741
_cell_formula_units_Z   3
loop_
 _symmetry_equiv_pos_site_id
 _symmetry_equiv_pos_as_xyz
  1  'x, y, z'
loop_
 _atom_site_type_symbol
 _atom_site_label
 _atom_site_symmetry_multiplicity
 _atom_site_fract_x
 _atom_site_fract_y
 _atom_site_fract_z
 _atom_site_occupancy
  Li  Li0  1  0.00000000  0.00000000  0.00000000  1
  Li  Li1  1  0.41075575  0.09865695  0.35274261  1
  Li  Li2  1  0.41520888  0.31933412  0.57589456  1
  N  N3  1  -0.00000000  0.24597552  0.75402448  1
  N  N4  1  -0.00000000  0.85950255  0.59872675  1
  N  N5  1  -0.00000000  0.58164957  0.00000000  1
