# generated using pymatgen
data_LuNi
_symmetry_space_group_name_H-M   P1
_cell_length_a   5.24786568
_cell_length_b   7.27942467
_cell_length_c   9.20375538
_cell_angle_alpha   84.84531403
_cell_angle_beta   82.03085327
_cell_angle_gamma   84.95966339
_symmetry_Int_Tables_number   1
_chemical_formula_structural   LuNi
_chemical_formula_sum   'Lu4 Ni4'
_cell_volume   345.77831559
_cell_formula_units_Z   4
loop_
 _symmetry_equiv_pos_site_id
 _symmetry_equiv_pos_as_xyz
  1  'x, y, z'
loop_
 _atom_site_type_symbol
 _atom_site_label
 _atom_site_symmetry_multiplicity
 _atom_site_fract_x
 _atom_site_fract_y
 _atom_site_fract_z
 _atom_site_occupancy
  Lu  Lu0  1  0.27407011  0.18503031  0.24941477  1
  Lu  Lu1  1  0.29162806  0.59022319  0.54136741  1
  Lu  Lu2  1  0.68090445  0.90068150  0.91448897  1
  Lu  Lu3  1  0.78930032  0.65669376  0.35377192  1
  Ni  Ni4  1  0.15137190  0.87543106  0.41623297  1
  Ni  Ni5  1  0.45432648  0.57030046  0.00000000  1
  Ni  Ni6  1  0.57401240  0.37050760  0.90696239  1
  Ni  Ni7  1  0.90178138  0.32209498  0.45812789  1
