# generated using pymatgen
data_Mg
_symmetry_space_group_name_H-M   C2/m
_cell_length_a   5.11934920
_cell_length_b   3.58692771
_cell_length_c   5.04303872
_cell_angle_alpha   90.00000000
_cell_angle_beta   101.67182745
_cell_angle_gamma   90.00000000
_symmetry_Int_Tables_number   12
_chemical_formula_structural   Mg
_chemical_formula_sum   Mg4
_cell_volume   90.68915830
_cell_formula_units_Z   4
loop_
 _symmetry_equiv_pos_site_id
 _symmetry_equiv_pos_as_xyz
  1  'x, y, z'
  2  '-x, -y, -z'
  3  '-x, y, -z'
  4  'x, -y, z'
  5  'x+1/2, y+1/2, z'
  6  '-x+1/2, -y+1/2, -z'
  7  '-x+1/2, y+1/2, -z'
  8  'x+1/2, -y+1/2, z'
loop_
 _atom_site_type_symbol
 _atom_site_label
 _atom_site_symmetry_multiplicity
 _atom_site_fract_x
 _atom_site_fract_y
 _atom_site_fract_z
 _atom_site_occupancy
  Mg  Mg0  4  0.24309824  0.00000000  0.25067243  1
