# generated using pymatgen
data_MgAlF6
_symmetry_space_group_name_H-M   P1
_cell_length_a   4.87654729
_cell_length_b   4.97731226
_cell_length_c   5.02648442
_cell_angle_alpha   89.01802023
_cell_angle_beta   69.66349216
_cell_angle_gamma   71.00719309
_symmetry_Int_Tables_number   1
_chemical_formula_structural   MgAlF6
_chemical_formula_sum   'Mg1 Al1 F6'
_cell_volume   107.53514501
_cell_formula_units_Z   1
loop_
 _symmetry_equiv_pos_site_id
 _symmetry_equiv_pos_as_xyz
  1  'x, y, z'
loop_
 _atom_site_type_symbol
 _atom_site_label
 _atom_site_symmetry_multiplicity
 _atom_site_fract_x
 _atom_site_fract_y
 _atom_site_fract_z
 _atom_site_occupancy
  Mg  Mg0  1  0.05939821  0.46195548  0.47091754  1
  Al  Al1  1  0.30150367  0.89691613  0.90436147  1
  F  F2  1  0.10622296  0.72013633  0.16103180  1
  F  F3  1  0.10896717  0.17545910  0.75200402  1
  F  F4  1  0.30691131  0.64912856  0.61773102  1
  F  F5  1  0.30854153  0.13528005  0.16369816  1
  F  F6  1  0.70438969  0.75790528  0.76376029  1
  F  F7  1  0.74038681  0.33911885  0.38855554  1
