# generated using pymatgen
data_MgAlH2
_symmetry_space_group_name_H-M   P1
_cell_length_a   6.49910236
_cell_length_b   7.08406487
_cell_length_c   7.34627771
_cell_angle_alpha   61.70467307
_cell_angle_beta   74.10124986
_cell_angle_gamma   66.27452437
_symmetry_Int_Tables_number   1
_chemical_formula_structural   MgAlH2
_chemical_formula_sum   'Mg1 Al1 H2'
_cell_volume   271.18435071
_cell_formula_units_Z   1
loop_
 _symmetry_equiv_pos_site_id
 _symmetry_equiv_pos_as_xyz
  1  'x, y, z'
loop_
 _atom_site_type_symbol
 _atom_site_label
 _atom_site_symmetry_multiplicity
 _atom_site_fract_x
 _atom_site_fract_y
 _atom_site_fract_z
 _atom_site_occupancy
  Mg  Mg0  1  0.75461191  0.59310019  0.99349737  1
  Al  Al1  1  0.29646754  0.23521680  0.14062667  1
  H  H2  1  0.00000000  0.00000000  0.00000000  1
  H  H3  1  0.50770134  0.53767186  0.50957954  1
