# generated using pymatgen
data_MgCuH
_symmetry_space_group_name_H-M   P1
_cell_length_a   3.83858180
_cell_length_b   5.69436660
_cell_length_c   5.92194414
_cell_angle_alpha   85.10765694
_cell_angle_beta   78.64627838
_cell_angle_gamma   72.02256085
_symmetry_Int_Tables_number   1
_chemical_formula_structural   MgCuH
_chemical_formula_sum   'Mg3 Cu3 H3'
_cell_volume   120.67268960
_cell_formula_units_Z   3
loop_
 _symmetry_equiv_pos_site_id
 _symmetry_equiv_pos_as_xyz
  1  'x, y, z'
loop_
 _atom_site_type_symbol
 _atom_site_label
 _atom_site_symmetry_multiplicity
 _atom_site_fract_x
 _atom_site_fract_y
 _atom_site_fract_z
 _atom_site_occupancy
  Mg  Mg0  1  0.52517098  0.00000000  0.20167664  1
  Mg  Mg1  1  0.55720168  0.26090062  0.73909938  1
  Mg  Mg2  1  0.56644303  0.77489412  0.87369174  1
  Cu  Cu3  1  0.00000000  0.00000000  0.00000000  1
  Cu  Cu4  1  0.39700577  0.36924124  0.16525692  1
  Cu  Cu5  1  0.57322305  0.61208975  0.67881840  1
  H  H6  1  -0.00000000  0.47421375  0.52578625  1
  H  H7  1  -0.00000000  0.28270140  0.02543476  1
  H  H8  1  0.00000000  0.00000000  0.62506372  1
