# generated using pymatgen
data_MgMnF6
_symmetry_space_group_name_H-M   P-1
_cell_length_a   5.02031006
_cell_length_b   5.13225830
_cell_length_c   5.27250178
_cell_angle_alpha   114.13574282
_cell_angle_beta   93.14741075
_cell_angle_gamma   115.82208703
_symmetry_Int_Tables_number   2
_chemical_formula_structural   MgMnF6
_chemical_formula_sum   'Mg1 Mn1 F6'
_cell_volume   107.01057017
_cell_formula_units_Z   1
loop_
 _symmetry_equiv_pos_site_id
 _symmetry_equiv_pos_as_xyz
  1  'x, y, z'
  2  '-x, -y, -z'
loop_
 _atom_site_type_symbol
 _atom_site_label
 _atom_site_symmetry_multiplicity
 _atom_site_fract_x
 _atom_site_fract_y
 _atom_site_fract_z
 _atom_site_occupancy
  Mg  Mg0  1  0.50000000  0.00000000  0.00000000  1
  Mn  Mn1  1  0.00000000  0.00000000  0.50000000  1
  F  F2  2  0.11848564  0.83324767  0.71078948  1
  F  F3  2  0.25713514  0.93111760  0.27100246  1
  F  F4  2  0.41632086  0.51503615  0.83091999  1
