# generated using pymatgen
data_MgScCd2
_symmetry_space_group_name_H-M   C2/m
_cell_length_a   6.76358920
_cell_length_b   6.90440622
_cell_length_c   4.90612225
_cell_angle_alpha   90.00000000
_cell_angle_beta   132.92367616
_cell_angle_gamma   90.00000000
_symmetry_Int_Tables_number   12
_chemical_formula_structural   MgScCd2
_chemical_formula_sum   'Mg2 Sc2 Cd4'
_cell_volume   167.76762254
_cell_formula_units_Z   2
loop_
 _symmetry_equiv_pos_site_id
 _symmetry_equiv_pos_as_xyz
  1  'x, y, z'
  2  '-x, -y, -z'
  3  '-x+z+1/2, -y, z'
  4  'x-z+1/2, y, -z'
  5  '-x, y, -z'
  6  'x, -y, z'
  7  'x-z+1/2, -y, -z'
  8  '-x+z+1/2, y, z'
  9  'x+1/2, y+1/2, z'
  10  '-x+1/2, -y+1/2, -z'
  11  '-x+z, -y+1/2, z'
  12  'x-z, y+1/2, -z'
  13  '-x+1/2, y+1/2, -z'
  14  'x+1/2, -y+1/2, z'
  15  'x-z, -y+1/2, -z'
  16  '-x+z, y+1/2, z'
loop_
 _atom_site_type_symbol
 _atom_site_label
 _atom_site_symmetry_multiplicity
 _atom_site_fract_x
 _atom_site_fract_y
 _atom_site_fract_z
 _atom_site_occupancy
  Mg  Mg0  2  0.00000000  0.00000000  0.50000000  1
  Sc  Sc1  2  0.00000000  0.50000000  0.50000000  1
  Cd  Cd2  4  0.00000000  0.24909705  0.00000000  1
