# generated using pymatgen
data_MgZrF6
_symmetry_space_group_name_H-M   P-1
_cell_length_a   5.63847994
_cell_length_b   5.65387926
_cell_length_c   5.66015673
_cell_angle_alpha   60.07742509
_cell_angle_beta   60.38357519
_cell_angle_gamma   60.47028710
_symmetry_Int_Tables_number   2
_chemical_formula_structural   MgZrF6
_chemical_formula_sum   'Mg1 Zr1 F6'
_cell_volume   128.48452809
_cell_formula_units_Z   1
loop_
 _symmetry_equiv_pos_site_id
 _symmetry_equiv_pos_as_xyz
  1  'x, y, z'
  2  '-x, -y, -z'
loop_
 _atom_site_type_symbol
 _atom_site_label
 _atom_site_symmetry_multiplicity
 _atom_site_fract_x
 _atom_site_fract_y
 _atom_site_fract_z
 _atom_site_occupancy
  Mg  Mg0  1  0.00000000  0.00000000  0.50000000  1
  Zr  Zr1  1  0.50000000  0.50000000  0.00000000  1
  F  F2  2  0.21672657  0.71696477  0.78042796  1
  F  F3  2  0.26301117  0.76677774  0.23563119  1
  F  F4  2  0.26699128  0.23152886  0.29873115  1
