# generated using pymatgen
data_Mn2B4Mo
_symmetry_space_group_name_H-M   P1
_cell_length_a   3.14423934
_cell_length_b   3.64880095
_cell_length_c   5.13336945
_cell_angle_alpha   81.12828925
_cell_angle_beta   74.36980350
_cell_angle_gamma   85.46967463
_symmetry_Int_Tables_number   1
_chemical_formula_structural   Mn2B4Mo
_chemical_formula_sum   'Mn2 B4 Mo1'
_cell_volume   55.99385440
_cell_formula_units_Z   1
loop_
 _symmetry_equiv_pos_site_id
 _symmetry_equiv_pos_as_xyz
  1  'x, y, z'
loop_
 _atom_site_type_symbol
 _atom_site_label
 _atom_site_symmetry_multiplicity
 _atom_site_fract_x
 _atom_site_fract_y
 _atom_site_fract_z
 _atom_site_occupancy
  Mn  Mn0  1  0.49263591  -0.00000000  0.15084791  1
  Mn  Mn1  1  0.86284101  -0.00000000  0.28300792  1
  B  B2  1  0.17931581  -0.00000000  0.41489077  1
  B  B3  1  0.33732465  0.51851264  0.28042588  1
  B  B4  1  0.54106581  0.62492144  0.66256508  1
  B  B5  1  0.63974917  -0.00000000  0.84550476  1
  Mo  Mo6  1  0.71381760  0.71599984  0.28618240  1
