# generated using pymatgen
data_Mn3AlC
_symmetry_space_group_name_H-M   Cm
_cell_length_a   9.68818683
_cell_length_b   2.73240488
_cell_length_c   4.58100212
_cell_angle_alpha   90.00000000
_cell_angle_beta   115.77103687
_cell_angle_gamma   90.00000000
_symmetry_Int_Tables_number   8
_chemical_formula_structural   Mn3AlC
_chemical_formula_sum   'Mn6 Al2 C2'
_cell_volume   109.20698456
_cell_formula_units_Z   2
loop_
 _symmetry_equiv_pos_site_id
 _symmetry_equiv_pos_as_xyz
  1  'x, y, z'
  2  'x, -y, z'
  3  'x+1/2, y+1/2, z'
  4  'x+1/2, -y+1/2, z'
loop_
 _atom_site_type_symbol
 _atom_site_label
 _atom_site_symmetry_multiplicity
 _atom_site_fract_x
 _atom_site_fract_y
 _atom_site_fract_z
 _atom_site_occupancy
  Mn  Mn0  2  0.22801595  0.50000000  0.39554868  1
  Mn  Mn1  2  0.47186675  0.00000000  0.82365013  1
  Mn  Mn2  2  0.47587164  0.50000000  0.28202978  1
  Al  Al3  2  0.20475804  0.00000000  0.86680364  1
  C  C4  2  0.35724654  0.00000000  0.36484186  1
