# generated using pymatgen
data_Mn3Ir
_symmetry_space_group_name_H-M   P1
_cell_length_a   2.44257569
_cell_length_b   2.56362973
_cell_length_c   2.79649782
_cell_angle_alpha   90.67660872
_cell_angle_beta   107.42311096
_cell_angle_gamma   103.95408444
_symmetry_Int_Tables_number   1
_chemical_formula_structural   Mn3Ir
_chemical_formula_sum   'Mn6 Ir2'
_cell_volume   16.14791341
_cell_formula_units_Z   2
loop_
 _symmetry_equiv_pos_site_id
 _symmetry_equiv_pos_as_xyz
  1  'x, y, z'
loop_
 _atom_site_type_symbol
 _atom_site_label
 _atom_site_symmetry_multiplicity
 _atom_site_fract_x
 _atom_site_fract_y
 _atom_site_fract_z
 _atom_site_occupancy
  Mn  Mn0  1  0.06895709  0.80078542  0.01085818  1
  Mn  Mn1  1  0.11916733  0.89597356  0.72422853  1
  Mn  Mn2  1  0.13049421  0.24994215  0.77760005  1
  Mn  Mn3  1  0.18423182  0.64744329  0.78630149  1
  Mn  Mn4  1  0.21840775  0.34234107  0.59069961  1
  Mn  Mn5  1  0.50133339  0.33638453  0.33638453  1
  Ir  Ir6  1  0.44700193  0.54522485  0.04366696  1
  Ir  Ir7  1  0.58494353  0.23096240  0.73319530  1
