# generated using pymatgen
data_Mn3PtN
_symmetry_space_group_name_H-M   Cm
_cell_length_a   5.17025119
_cell_length_b   5.28807720
_cell_length_c   4.85805995
_cell_angle_alpha   90.00000000
_cell_angle_beta   119.65640220
_cell_angle_gamma   90.00000000
_symmetry_Int_Tables_number   8
_chemical_formula_structural   Mn3PtN
_chemical_formula_sum   'Mn6 Pt2 N2'
_cell_volume   115.42402372
_cell_formula_units_Z   2
loop_
 _symmetry_equiv_pos_site_id
 _symmetry_equiv_pos_as_xyz
  1  'x, y, z'
  2  'x, -y, z'
  3  'x+1/2, y+1/2, z'
  4  'x+1/2, -y+1/2, z'
loop_
 _atom_site_type_symbol
 _atom_site_label
 _atom_site_symmetry_multiplicity
 _atom_site_fract_x
 _atom_site_fract_y
 _atom_site_fract_z
 _atom_site_occupancy
  Mn  Mn0  4  0.25485667  0.24956960  0.44825183  1
  Mn  Mn1  2  0.22392797  0.00000000  0.88735788  1
  Pt  Pt2  2  0.26153752  0.50000000  0.95796315  1
  N  N3  2  0.44956309  0.00000000  0.32957076  1
