# generated using pymatgen
data_MnV2Cr
_symmetry_space_group_name_H-M   P1
_cell_length_a   1.67334211
_cell_length_b   1.73668829
_cell_length_c   2.61590617
_cell_angle_alpha   89.36888216
_cell_angle_beta   81.31897422
_cell_angle_gamma   62.25077610
_symmetry_Int_Tables_number   1
_chemical_formula_structural   MnV2Cr
_chemical_formula_sum   'Mn1 V2 Cr1'
_cell_volume   6.63538943
_cell_formula_units_Z   1
loop_
 _symmetry_equiv_pos_site_id
 _symmetry_equiv_pos_as_xyz
  1  'x, y, z'
loop_
 _atom_site_type_symbol
 _atom_site_label
 _atom_site_symmetry_multiplicity
 _atom_site_fract_x
 _atom_site_fract_y
 _atom_site_fract_z
 _atom_site_occupancy
  Mn  Mn0  1  0.94070888  0.51252180  0.19841594  1
  V  V1  1  0.00000000  0.00000000  0.00000000  1
  V  V2  1  0.49804962  0.77373594  0.42082763  1
  Cr  Cr3  1  0.73263520  0.60019964  0.81778038  1
