# generated using pymatgen
data_Mo3Pt
_symmetry_space_group_name_H-M   P1
_cell_length_a   2.88348174
_cell_length_b   3.03575158
_cell_length_c   3.60135269
_cell_angle_alpha   77.92080688
_cell_angle_beta   87.00206757
_cell_angle_gamma   84.63779449
_symmetry_Int_Tables_number   1
_chemical_formula_structural   Mo3Pt
_chemical_formula_sum   'Mo6 Pt2'
_cell_volume   30.67432227
_cell_formula_units_Z   2
loop_
 _symmetry_equiv_pos_site_id
 _symmetry_equiv_pos_as_xyz
  1  'x, y, z'
loop_
 _atom_site_type_symbol
 _atom_site_label
 _atom_site_symmetry_multiplicity
 _atom_site_fract_x
 _atom_site_fract_y
 _atom_site_fract_z
 _atom_site_occupancy
  Mo  Mo0  1  0.00000000  0.12300301  0.56522074  1
  Mo  Mo1  1  0.00000000  0.58734769  0.19091153  1
  Mo  Mo2  1  0.21007267  -0.00000000  0.41593355  1
  Mo  Mo3  1  0.48853934  -0.00000000  0.51797894  1
  Mo  Mo4  1  0.56094187  0.70265365  0.00000000  1
  Mo  Mo5  1  0.67021596  0.21221632  0.00000000  1
  Pt  Pt6  1  0.00000000  0.00000000  0.00000000  1
  Pt  Pt7  1  0.55688852  0.48231125  0.61061755  1
