# generated using pymatgen
data_MoP2H
_symmetry_space_group_name_H-M   P1
_cell_length_a   2.29757285
_cell_length_b   4.08175802
_cell_length_c   9.96997947
_cell_angle_alpha   81.17632910
_cell_angle_beta   88.59724866
_cell_angle_gamma   74.04249806
_symmetry_Int_Tables_number   1
_chemical_formula_structural   MoP2H
_chemical_formula_sum   'Mo2 P4 H2'
_cell_volume   88.81757019
_cell_formula_units_Z   2
loop_
 _symmetry_equiv_pos_site_id
 _symmetry_equiv_pos_as_xyz
  1  'x, y, z'
loop_
 _atom_site_type_symbol
 _atom_site_label
 _atom_site_symmetry_multiplicity
 _atom_site_fract_x
 _atom_site_fract_y
 _atom_site_fract_z
 _atom_site_occupancy
  Mo  Mo0  1  0.14637065  0.42681468  0.42681468  1
  Mo  Mo1  1  0.26693702  0.86653149  0.86653149  1
  P  P2  1  0.08614805  0.33673757  0.15604493  1
  P  P3  1  0.50637805  0.22364578  0.48810646  1
  P  P4  1  0.76072985  0.77362090  0.43670553  1
  P  P5  1  0.77785558  0.65382957  0.88884974  1
  H  H6  1  0.00000000  0.00000000  0.00000000  1
  H  H7  1  0.72120643  0.63939679  0.63939679  1
