# generated using pymatgen
data_Na4Sn(GeS3)2
_symmetry_space_group_name_H-M   P1
_cell_length_a   6.12630367
_cell_length_b   7.33971024
_cell_length_c   7.34352255
_cell_angle_alpha   80.35062408
_cell_angle_beta   87.09171295
_cell_angle_gamma   66.05901337
_symmetry_Int_Tables_number   1
_chemical_formula_structural   Na4Sn(GeS3)2
_chemical_formula_sum   'Na4 Sn1 Ge2 S6'
_cell_volume   297.46968920
_cell_formula_units_Z   1
loop_
 _symmetry_equiv_pos_site_id
 _symmetry_equiv_pos_as_xyz
  1  'x, y, z'
loop_
 _atom_site_type_symbol
 _atom_site_label
 _atom_site_symmetry_multiplicity
 _atom_site_fract_x
 _atom_site_fract_y
 _atom_site_fract_z
 _atom_site_occupancy
  Na  Na0  1  0.19552231  0.13325056  0.00000000  1
  Na  Na1  1  0.22127968  0.38117775  0.28002870  1
  Na  Na2  1  0.44390684  0.45298702  0.00000000  1
  Na  Na3  1  0.66172156  0.75252259  0.76076555  1
  Sn  Sn4  1  0.66816702  0.81325150  -0.00000000  1
  Ge  Ge5  1  0.00000000  0.00000000  0.25532758  1
  Ge  Ge6  1  0.07112539  0.96198648  0.72312820  1
  S  S7  1  0.00000000  0.41388077  0.00000000  1
  S  S8  1  0.12783754  0.40274870  0.62136835  1
  S  S9  1  0.16460782  0.67414218  0.54046458  1
  S  S10  1  0.32752049  0.88406008  0.78824979  1
  S  S11  1  0.50463217  0.12520871  0.10913318  1
  S  S12  1  0.72157767  0.11442149  0.67187631  1
