# generated using pymatgen
data_Na4SnGe2
_symmetry_space_group_name_H-M   Cm
_cell_length_a   11.27570272
_cell_length_b   4.11112422
_cell_length_c   8.29208401
_cell_angle_alpha   90.00000000
_cell_angle_beta   101.64650693
_cell_angle_gamma   90.00000000
_symmetry_Int_Tables_number   8
_chemical_formula_structural   Na4SnGe2
_chemical_formula_sum   'Na8 Sn2 Ge4'
_cell_volume   376.47245205
_cell_formula_units_Z   2
loop_
 _symmetry_equiv_pos_site_id
 _symmetry_equiv_pos_as_xyz
  1  'x, y, z'
  2  'x, -y, z'
  3  'x+1/2, y+1/2, z'
  4  'x+1/2, -y+1/2, z'
loop_
 _atom_site_type_symbol
 _atom_site_label
 _atom_site_symmetry_multiplicity
 _atom_site_fract_x
 _atom_site_fract_y
 _atom_site_fract_z
 _atom_site_occupancy
  Na  Na0  2  0.04248467  0.50000000  0.91180018  1
  Na  Na1  2  0.23236783  0.00000000  0.34176104  1
  Na  Na2  2  0.32862830  0.50000000  0.67721968  1
  Na  Na3  2  0.44131766  0.50000000  0.19391363  1
  Sn  Sn4  2  0.26228743  0.00000000  0.96052109  1
  Ge  Ge5  2  0.03499032  0.50000000  0.48351242  1
  Ge  Ge6  2  0.10440082  0.00000000  0.65226605  1
