# generated using pymatgen
data_Na4Zn2Se5
_symmetry_space_group_name_H-M   P1
_cell_length_a   5.37315655
_cell_length_b   7.69152746
_cell_length_c   7.70433855
_cell_angle_alpha   107.78484295
_cell_angle_beta   92.87511444
_cell_angle_gamma   104.03124625
_symmetry_Int_Tables_number   1
_chemical_formula_structural   Na4Zn2Se5
_chemical_formula_sum   'Na4 Zn2 Se5'
_cell_volume   291.46972190
_cell_formula_units_Z   1
loop_
 _symmetry_equiv_pos_site_id
 _symmetry_equiv_pos_as_xyz
  1  'x, y, z'
loop_
 _atom_site_type_symbol
 _atom_site_label
 _atom_site_symmetry_multiplicity
 _atom_site_fract_x
 _atom_site_fract_y
 _atom_site_fract_z
 _atom_site_occupancy
  Na  Na0  1  0.08462200  0.56837964  0.20583364  1
  Na  Na1  1  0.15310463  0.15310463  0.66096902  1
  Na  Na2  1  0.75629964  0.49059412  0.80571306  1
  Na  Na3  1  0.89842719  0.68451744  0.62171835  1
  Zn  Zn4  1  0.29066843  0.00000000  0.14942291  1
  Zn  Zn5  1  0.99073726  0.11630511  0.13678092  1
  Se  Se6  1  0.00000000  0.00000000  0.00000000  1
  Se  Se7  1  0.25569519  0.25569519  0.95259374  1
  Se  Se8  1  0.43401945  0.11985064  0.28274134  1
  Se  Se9  1  0.45029503  0.73730427  0.78541422  1
  Se  Se10  1  0.73477066  0.62812972  0.00000000  1
