# generated using pymatgen
data_NaCdSb
_symmetry_space_group_name_H-M   Pna2_1
_cell_length_a   8.41342417
_cell_length_b   4.90266428
_cell_length_c   7.84291817
_cell_angle_alpha   90.00000000
_cell_angle_beta   90.00000000
_cell_angle_gamma   90.00000000
_symmetry_Int_Tables_number   33
_chemical_formula_structural   NaCdSb
_chemical_formula_sum   'Na4 Cd4 Sb4'
_cell_volume   323.50621102
_cell_formula_units_Z   4
loop_
 _symmetry_equiv_pos_site_id
 _symmetry_equiv_pos_as_xyz
  1  'x, y, z'
  2  '-x, -y+636/649, z+1/2'
  3  '-x, y, z+1/2'
  4  'x, -y+636/649, z'
  5  'x+1/2, y+1/2, z'
  6  '-x+1/2, -y+479/998, z+1/2'
  7  '-x+1/2, y+1/2, z+1/2'
  8  'x+1/2, -y+479/998, z'
loop_
 _atom_site_type_symbol
 _atom_site_label
 _atom_site_symmetry_multiplicity
 _atom_site_fract_x
 _atom_site_fract_y
 _atom_site_fract_z
 _atom_site_occupancy
  Na  Na0  4  0.00333844  0.50355966  0.02268349  1
  Cd  Cd1  4  0.16748908  0.00315305  0.21337605  1
  Sb  Sb2  4  0.16779660  0.00311516  0.82413614  1
