# generated using pymatgen
data_NaHAu2
_symmetry_space_group_name_H-M   P1
_cell_length_a   5.03391266
_cell_length_b   5.53168791
_cell_length_c   5.58090380
_cell_angle_alpha   62.86864118
_cell_angle_beta   64.35611913
_cell_angle_gamma   67.88034508
_symmetry_Int_Tables_number   1
_chemical_formula_structural   NaHAu2
_chemical_formula_sum   'Na1 H1 Au2'
_cell_volume   121.53348975
_cell_formula_units_Z   1
loop_
 _symmetry_equiv_pos_site_id
 _symmetry_equiv_pos_as_xyz
  1  'x, y, z'
loop_
 _atom_site_type_symbol
 _atom_site_label
 _atom_site_symmetry_multiplicity
 _atom_site_fract_x
 _atom_site_fract_y
 _atom_site_fract_z
 _atom_site_occupancy
  Na  Na0  1  0.54260781  0.15758741  0.15028965  1
  H  H1  1  0.71352220  0.74861681  0.83591348  1
  Au  Au2  1  0.00000000  0.00000000  0.00000000  1
  Au  Au3  1  0.85562521  0.40910822  0.35809118  1
