# generated using pymatgen
data_Nb2B2H
_symmetry_space_group_name_H-M   Cm
_cell_length_a   8.43079696
_cell_length_b   3.00734692
_cell_length_c   5.67778691
_cell_angle_alpha   90.00000000
_cell_angle_beta   131.24002053
_cell_angle_gamma   90.00000000
_symmetry_Int_Tables_number   8
_chemical_formula_structural   Nb2B2H
_chemical_formula_sum   'Nb4 B4 H2'
_cell_volume   108.24875052
_cell_formula_units_Z   2
loop_
 _symmetry_equiv_pos_site_id
 _symmetry_equiv_pos_as_xyz
  1  'x, y, z'
  2  'x, -y, z'
  3  'x+1/2, y+1/2, z'
  4  'x+1/2, -y+1/2, z'
loop_
 _atom_site_type_symbol
 _atom_site_label
 _atom_site_symmetry_multiplicity
 _atom_site_fract_x
 _atom_site_fract_y
 _atom_site_fract_z
 _atom_site_occupancy
  Nb  Nb0  2  0.00109498  0.50000000  0.78620693  1
  Nb  Nb1  2  0.00748198  0.00000000  0.26910445  1
  B  B2  2  0.26108410  0.50000000  0.34729908  1
  B  B3  2  0.26524825  0.00000000  0.21123513  1
  H  H4  2  0.34363018  0.50000000  0.82526993  1
