# generated using pymatgen
data_NbC
_symmetry_space_group_name_H-M   P1
_cell_length_a   2.38875222
_cell_length_b   2.89085817
_cell_length_c   3.02896547
_cell_angle_alpha   98.77813721
_cell_angle_beta   94.47780609
_cell_angle_gamma   98.77706146
_symmetry_Int_Tables_number   1
_chemical_formula_structural   NbC
_chemical_formula_sum   'Nb4 C4'
_cell_volume   20.31927057
_cell_formula_units_Z   4
loop_
 _symmetry_equiv_pos_site_id
 _symmetry_equiv_pos_as_xyz
  1  'x, y, z'
loop_
 _atom_site_type_symbol
 _atom_site_label
 _atom_site_symmetry_multiplicity
 _atom_site_fract_x
 _atom_site_fract_y
 _atom_site_fract_z
 _atom_site_occupancy
  Nb  Nb0  1  0.00000000  0.56130055  0.00000000  1
  Nb  Nb1  1  0.00000000  -0.00000000  0.36035371  1
  Nb  Nb2  1  0.51023597  0.33135974  0.33444184  1
  Nb  Nb3  1  0.60524166  0.00000000  0.00000000  1
  C  C4  1  0.00000000  0.63838133  0.51780432  1
  C  C5  1  0.15582040  0.00000000  0.00000000  1
  C  C6  1  0.35587594  0.39969230  0.00000000  1
  C  C7  1  0.47338712  0.00000000  0.80937341  1
