# generated using pymatgen
data_Nd2CdSb4
_symmetry_space_group_name_H-M   P-4m2
_cell_length_a   4.38716319
_cell_length_b   4.38716319
_cell_length_c   10.77384601
_cell_angle_alpha   90.00000000
_cell_angle_beta   90.00000000
_cell_angle_gamma   90.00000000
_symmetry_Int_Tables_number   115
_chemical_formula_structural   Nd2CdSb4
_chemical_formula_sum   'Nd2 Cd1 Sb4'
_cell_volume   207.36637822
_cell_formula_units_Z   1
loop_
 _symmetry_equiv_pos_site_id
 _symmetry_equiv_pos_as_xyz
  1  'x, y, z'
  2  'y, -x, -z'
  3  '-x, -y, z'
  4  '-y, x, -z'
  5  '-x, y, z'
  6  '-y, -x, -z'
  7  'x, -y, z'
  8  'y, x, -z'
loop_
 _atom_site_type_symbol
 _atom_site_label
 _atom_site_symmetry_multiplicity
 _atom_site_fract_x
 _atom_site_fract_y
 _atom_site_fract_z
 _atom_site_occupancy
  Nd  Nd0  2  0.00000000  0.50000000  0.23523805  1
  Cd  Cd1  1  0.50000000  0.50000000  0.50000000  1
  Sb  Sb2  2  0.00000000  0.50000000  0.67352075  1
  Sb  Sb3  1  0.00000000  0.00000000  0.00000000  1
  Sb  Sb4  1  0.50000000  0.50000000  0.00000000  1
