# generated using pymatgen
data_NdAlO3
_symmetry_space_group_name_H-M   C2/c
_cell_length_a   9.23052454
_cell_length_b   5.38357560
_cell_length_c   5.33378798
_cell_angle_alpha   90.00000000
_cell_angle_beta   124.99177397
_cell_angle_gamma   90.00000000
_symmetry_Int_Tables_number   15
_chemical_formula_structural   NdAlO3
_chemical_formula_sum   'Nd4 Al4 O12'
_cell_volume   217.14064252
_cell_formula_units_Z   4
loop_
 _symmetry_equiv_pos_site_id
 _symmetry_equiv_pos_as_xyz
  1  'x, y, z'
  2  '-x, -y, -z'
  3  '-x, y, -z+1/2'
  4  'x, -y, z+1/2'
  5  'x+1/2, y+1/2, z'
  6  '-x+1/2, -y+1/2, -z'
  7  '-x+1/2, y+1/2, -z+1/2'
  8  'x+1/2, -y+1/2, z+1/2'
loop_
 _atom_site_type_symbol
 _atom_site_label
 _atom_site_symmetry_multiplicity
 _atom_site_fract_x
 _atom_site_fract_y
 _atom_site_fract_z
 _atom_site_occupancy
  Nd  Nd0  4  0.00000000  0.25466405  0.25000000  1
  Al  Al1  4  0.25000000  0.25000000  0.00000000  1
  O  O2  8  0.21363222  0.49189623  0.70505179  1
  O  O3  4  0.00000000  0.18715412  0.75000000  1
