# generated using pymatgen
data_NdMg2Al
_symmetry_space_group_name_H-M   P1
_cell_length_a   4.69542978
_cell_length_b   5.55395355
_cell_length_c   5.84944630
_cell_angle_alpha   99.17345848
_cell_angle_beta   111.86996871
_cell_angle_gamma   111.98448891
_symmetry_Int_Tables_number   1
_chemical_formula_structural   NdMg2Al
_chemical_formula_sum   'Nd1 Mg2 Al1'
_cell_volume   123.09966366
_cell_formula_units_Z   1
loop_
 _symmetry_equiv_pos_site_id
 _symmetry_equiv_pos_as_xyz
  1  'x, y, z'
loop_
 _atom_site_type_symbol
 _atom_site_label
 _atom_site_symmetry_multiplicity
 _atom_site_fract_x
 _atom_site_fract_y
 _atom_site_fract_z
 _atom_site_occupancy
  Nd  Nd0  1  0.80437434  0.39563084  0.19892889  1
  Mg  Mg1  1  0.00000000  0.00000000  0.00000000  1
  Mg  Mg2  1  0.56163895  0.25942558  0.85980475  1
  Al  Al3  1  0.39226803  0.68259647  0.00941280  1
