# generated using pymatgen
data_NdPt3
_symmetry_space_group_name_H-M   P1
_cell_length_a   2.78501630
_cell_length_b   3.48249269
_cell_length_c   5.55353022
_cell_angle_alpha   83.54472351
_cell_angle_beta   85.49829865
_cell_angle_gamma   78.38838959
_symmetry_Int_Tables_number   1
_chemical_formula_structural   NdPt3
_chemical_formula_sum   'Nd1 Pt3'
_cell_volume   52.33933482
_cell_formula_units_Z   1
loop_
 _symmetry_equiv_pos_site_id
 _symmetry_equiv_pos_as_xyz
  1  'x, y, z'
loop_
 _atom_site_type_symbol
 _atom_site_label
 _atom_site_symmetry_multiplicity
 _atom_site_fract_x
 _atom_site_fract_y
 _atom_site_fract_z
 _atom_site_occupancy
  Nd  Nd0  1  0.00000000  0.00000000  0.00000000  1
  Pt  Pt1  1  0.00000000  0.45196152  0.68257838  1
  Pt  Pt2  1  0.40894631  0.78854504  0.00000000  1
  Pt  Pt3  1  0.56840754  0.00000000  0.42455691  1
