# generated using pymatgen
data_NdZnPd
_symmetry_space_group_name_H-M   P-62m
_cell_length_a   7.45198990
_cell_length_b   7.45198990
_cell_length_c   3.98402258
_cell_angle_alpha   90.00000000
_cell_angle_beta   90.00000000
_cell_angle_gamma   120.00000000
_symmetry_Int_Tables_number   189
_chemical_formula_structural   NdZnPd
_chemical_formula_sum   'Nd3 Zn3 Pd3'
_cell_volume   191.60063242
_cell_formula_units_Z   3
loop_
 _symmetry_equiv_pos_site_id
 _symmetry_equiv_pos_as_xyz
  1  'x, y, z'
  2  '-x+y, -x, -z'
  3  '-y, x-y, z'
  4  'x, y, -z'
  5  '-x+y, -x, z'
  6  '-y, x-y, -z'
  7  'y, x, z'
  8  '-x, -x+y, -z'
  9  'x-y, -y, z'
  10  'y, x, -z'
  11  '-x, -x+y, z'
  12  'x-y, -y, -z'
loop_
 _atom_site_type_symbol
 _atom_site_label
 _atom_site_symmetry_multiplicity
 _atom_site_fract_x
 _atom_site_fract_y
 _atom_site_fract_z
 _atom_site_occupancy
  Nd  Nd0  3  0.00000000  0.59390428  0.50000000  1
  Zn  Zn1  3  0.00000000  0.24524643  0.00000000  1
  Pd  Pd2  2  0.33333333  0.66666667  0.00000000  1
  Pd  Pd3  1  0.00000000  0.00000000  0.50000000  1
