# generated using pymatgen
data_Ni2(MoP)3
_symmetry_space_group_name_H-M   P1
_cell_length_a   2.61576271
_cell_length_b   3.86741034
_cell_length_c   10.38651276
_cell_angle_alpha   84.61188307
_cell_angle_beta   87.09331512
_cell_angle_gamma   83.31256066
_symmetry_Int_Tables_number   1
_chemical_formula_structural   Ni2(MoP)3
_chemical_formula_sum   'Ni2 Mo3 P3'
_cell_volume   103.81224358
_cell_formula_units_Z   1
loop_
 _symmetry_equiv_pos_site_id
 _symmetry_equiv_pos_as_xyz
  1  'x, y, z'
loop_
 _atom_site_type_symbol
 _atom_site_label
 _atom_site_symmetry_multiplicity
 _atom_site_fract_x
 _atom_site_fract_y
 _atom_site_fract_z
 _atom_site_occupancy
  Ni  Ni0  1  0.00000000  0.00000000  0.00000000  1
  Ni  Ni1  1  0.00000000  0.00000000  0.51553953  1
  Mo  Mo2  1  0.00000000  0.00000000  0.18235597  1
  Mo  Mo3  1  0.00000000  0.00000000  0.82455635  1
  Mo  Mo4  1  0.35167447  0.76184428  0.51075846  1
  P  P5  1  0.00250360  0.21977913  0.39336443  1
  P  P6  1  0.23472971  0.36866808  0.79791903  1
  P  P7  1  0.71180129  0.75324619  -0.00000000  1
