# generated using pymatgen
data_Ni2B3
_symmetry_space_group_name_H-M   P1
_cell_length_a   1.80367494
_cell_length_b   2.27187586
_cell_length_c   2.37819371
_cell_angle_alpha   104.77186082
_cell_angle_beta   109.43221392
_cell_angle_gamma   93.02085114
_symmetry_Int_Tables_number   1
_chemical_formula_structural   Ni2B3
_chemical_formula_sum   'Ni2 B3'
_cell_volume   8.78466915
_cell_formula_units_Z   1
loop_
 _symmetry_equiv_pos_site_id
 _symmetry_equiv_pos_as_xyz
  1  'x, y, z'
loop_
 _atom_site_type_symbol
 _atom_site_label
 _atom_site_symmetry_multiplicity
 _atom_site_fract_x
 _atom_site_fract_y
 _atom_site_fract_z
 _atom_site_occupancy
  Ni  Ni0  1  0.00634336  0.66334766  0.26463157  1
  Ni  Ni1  1  0.99438912  0.09849811  0.87488320  1
  B  B2  1  0.00000000  0.00000000  0.00000000  1
  B  B3  1  0.39420849  0.67660049  0.79422456  1
  B  B4  1  0.49037635  0.15443242  0.05619276  1
