# generated using pymatgen
data_Ni2Mo2P3
_symmetry_space_group_name_H-M   P1
_cell_length_a   3.70048229
_cell_length_b   4.07096529
_cell_length_c   7.62082788
_cell_angle_alpha   83.15957338
_cell_angle_beta   84.35675773
_cell_angle_gamma   67.14732093
_symmetry_Int_Tables_number   1
_chemical_formula_structural   Ni2Mo2P3
_chemical_formula_sum   'Ni2 Mo2 P3'
_cell_volume   104.86948309
_cell_formula_units_Z   1
loop_
 _symmetry_equiv_pos_site_id
 _symmetry_equiv_pos_as_xyz
  1  'x, y, z'
loop_
 _atom_site_type_symbol
 _atom_site_label
 _atom_site_symmetry_multiplicity
 _atom_site_fract_x
 _atom_site_fract_y
 _atom_site_fract_z
 _atom_site_occupancy
  Ni  Ni0  1  0.00000000  0.00000000  0.00000000  1
  Ni  Ni1  1  0.26545507  -0.00000000  0.26545507  1
  Mo  Mo2  1  0.49541706  -0.00000000  0.49541706  1
  Mo  Mo3  1  0.67144281  -0.00000000  0.67144281  1
  P  P4  1  0.24355948  0.45359036  0.10613385  1
  P  P5  1  0.39693642  0.62877184  0.75459039  1
  P  P6  1  0.86429062  0.28979793  0.52753317  1
