# generated using pymatgen
data_Ni2Mo
_symmetry_space_group_name_H-M   P-1
_cell_length_a   0.70306419
_cell_length_b   1.00907078
_cell_length_c   1.16348875
_cell_angle_alpha   110.24689892
_cell_angle_beta   103.48879296
_cell_angle_gamma   92.33042618
_symmetry_Int_Tables_number   2
_chemical_formula_structural   Ni2Mo
_chemical_formula_sum   'Ni2 Mo1'
_cell_volume   0.74636702
_cell_formula_units_Z   1
loop_
 _symmetry_equiv_pos_site_id
 _symmetry_equiv_pos_as_xyz
  1  'x, y, z'
  2  '-x, -y, -z'
loop_
 _atom_site_type_symbol
 _atom_site_label
 _atom_site_symmetry_multiplicity
 _atom_site_fract_x
 _atom_site_fract_y
 _atom_site_fract_z
 _atom_site_occupancy
  Ni  Ni0  2  0.28961426  0.23679525  0.41151005  1
  Mo  Mo1  1  0.00000000  0.00000000  0.00000000  1
