# generated using pymatgen
data_Ni2MoP4
_symmetry_space_group_name_H-M   P1
_cell_length_a   3.16600680
_cell_length_b   4.01768800
_cell_length_c   11.82500553
_cell_angle_alpha   87.62465360
_cell_angle_beta   86.58469391
_cell_angle_gamma   73.05548337
_symmetry_Int_Tables_number   1
_chemical_formula_structural   Ni2MoP4
_chemical_formula_sum   'Ni2 Mo1 P4'
_cell_volume   143.58328537
_cell_formula_units_Z   1
loop_
 _symmetry_equiv_pos_site_id
 _symmetry_equiv_pos_as_xyz
  1  'x, y, z'
loop_
 _atom_site_type_symbol
 _atom_site_label
 _atom_site_symmetry_multiplicity
 _atom_site_fract_x
 _atom_site_fract_y
 _atom_site_fract_z
 _atom_site_occupancy
  Ni  Ni0  1  0.00000000  0.00000000  0.00000000  1
  Ni  Ni1  1  0.00000000  0.00000000  0.37325317  1
  Mo  Mo2  1  0.00000000  0.00000000  0.28118241  1
  P  P3  1  0.26293141  0.29130000  0.11950374  1
  P  P4  1  0.32979247  0.46037930  0.53086519  1
  P  P5  1  0.46406224  0.76427564  0.45358026  1
  P  P6  1  0.79094923  0.69322002  -0.00000000  1
