# generated using pymatgen
data_Ni2Rh
_symmetry_space_group_name_H-M   P1
_cell_length_a   1.30872268
_cell_length_b   1.54008833
_cell_length_c   2.00595236
_cell_angle_alpha   77.04953388
_cell_angle_beta   89.28114229
_cell_angle_gamma   80.40075332
_symmetry_Int_Tables_number   1
_chemical_formula_structural   Ni2Rh
_chemical_formula_sum   'Ni2 Rh1'
_cell_volume   3.88378759
_cell_formula_units_Z   1
loop_
 _symmetry_equiv_pos_site_id
 _symmetry_equiv_pos_as_xyz
  1  'x, y, z'
loop_
 _atom_site_type_symbol
 _atom_site_label
 _atom_site_symmetry_multiplicity
 _atom_site_fract_x
 _atom_site_fract_y
 _atom_site_fract_z
 _atom_site_occupancy
  Ni  Ni0  1  0.46759009  0.46759009  0.39911711  1
  Ni  Ni1  1  0.87876675  0.87876675  0.22550148  1
  Rh  Rh2  1  0.00000000  0.00000000  0.00000000  1
