# generated using pymatgen
data_Ni3(PbS)2
_symmetry_space_group_name_H-M   P1
_cell_length_a   5.19455767
_cell_length_b   5.28988563
_cell_length_c   5.92563343
_cell_angle_alpha   97.79535618
_cell_angle_beta   115.74825287
_cell_angle_gamma   108.44007276
_symmetry_Int_Tables_number   1
_chemical_formula_structural   Ni3(PbS)2
_chemical_formula_sum   'Ni3 Pb2 S2'
_cell_volume   131.83603719
_cell_formula_units_Z   1
loop_
 _symmetry_equiv_pos_site_id
 _symmetry_equiv_pos_as_xyz
  1  'x, y, z'
loop_
 _atom_site_type_symbol
 _atom_site_label
 _atom_site_symmetry_multiplicity
 _atom_site_fract_x
 _atom_site_fract_y
 _atom_site_fract_z
 _atom_site_occupancy
  Ni  Ni0  1  -0.00000000  -0.00000000  0.73191869  1
  Ni  Ni1  1  0.54322436  0.00000000  0.00000000  1
  Ni  Ni2  1  0.60916394  0.60916394  0.00000000  1
  Pb  Pb3  1  -0.00000000  -0.00000000  0.12145731  1
  Pb  Pb4  1  0.95470625  0.63605416  0.35194424  1
  S  S5  1  0.32312185  0.77414978  0.38490480  1
  S  S6  1  0.50379401  0.25686479  0.78938651  1
