# generated using pymatgen
data_Ni
_symmetry_space_group_name_H-M   P-1
_cell_length_a   1.10746016
_cell_length_b   1.40701377
_cell_length_c   1.86710463
_cell_angle_alpha   87.77884134
_cell_angle_beta   81.14772818
_cell_angle_gamma   84.26759803
_symmetry_Int_Tables_number   2
_chemical_formula_structural   Ni
_chemical_formula_sum   Ni2
_cell_volume   2.85950439
_cell_formula_units_Z   2
loop_
 _symmetry_equiv_pos_site_id
 _symmetry_equiv_pos_as_xyz
  1  'x, y, z'
  2  '-x, -y, -z'
loop_
 _atom_site_type_symbol
 _atom_site_label
 _atom_site_symmetry_multiplicity
 _atom_site_fract_x
 _atom_site_fract_y
 _atom_site_fract_z
 _atom_site_occupancy
  Ni  Ni0  2  0.05325316  0.10334907  0.84339777  1
