# generated using pymatgen
data_NiB
_symmetry_space_group_name_H-M   P1
_cell_length_a   2.48570609
_cell_length_b   2.74267411
_cell_length_c   4.10747272
_cell_angle_alpha   101.60774531
_cell_angle_beta   103.34036879
_cell_angle_gamma   99.06626892
_symmetry_Int_Tables_number   1
_chemical_formula_structural   NiB
_chemical_formula_sum   'Ni2 B2'
_cell_volume   26.07123276
_cell_formula_units_Z   2
loop_
 _symmetry_equiv_pos_site_id
 _symmetry_equiv_pos_as_xyz
  1  'x, y, z'
loop_
 _atom_site_type_symbol
 _atom_site_label
 _atom_site_symmetry_multiplicity
 _atom_site_fract_x
 _atom_site_fract_y
 _atom_site_fract_z
 _atom_site_occupancy
  Ni  Ni0  1  0.05881485  0.14519465  0.87371030  1
  Ni  Ni1  1  0.86236835  0.82418549  0.15753114  1
  B  B2  1  0.22951213  0.76267502  0.88252756  1
  B  B3  1  0.49719918  0.23199487  0.06480753  1
