# generated using pymatgen
data_NiBr2
_symmetry_space_group_name_H-M   P-1
_cell_length_a   3.41763117
_cell_length_b   4.33771230
_cell_length_c   6.74400373
_cell_angle_alpha   91.77205593
_cell_angle_beta   101.76053793
_cell_angle_gamma   112.61543446
_symmetry_Int_Tables_number   2
_chemical_formula_structural   NiBr2
_chemical_formula_sum   'Ni1 Br2'
_cell_volume   89.68958708
_cell_formula_units_Z   1
loop_
 _symmetry_equiv_pos_site_id
 _symmetry_equiv_pos_as_xyz
  1  'x, y, z'
  2  '-x, -y, -z'
loop_
 _atom_site_type_symbol
 _atom_site_label
 _atom_site_symmetry_multiplicity
 _atom_site_fract_x
 _atom_site_fract_y
 _atom_site_fract_z
 _atom_site_occupancy
  Ni  Ni0  1  0.00000000  0.50000000  0.00000000  1
  Br  Br1  2  0.30936266  0.29574618  0.77500275  1
