# generated using pymatgen
data_NiF3
_symmetry_space_group_name_H-M   P1
_cell_length_a   4.73595548
_cell_length_b   4.92459175
_cell_length_c   5.00066677
_cell_angle_alpha   105.00119117
_cell_angle_beta   100.00574775
_cell_angle_gamma   117.07818239
_symmetry_Int_Tables_number   1
_chemical_formula_structural   NiF3
_chemical_formula_sum   'Ni2 F6'
_cell_volume   94.36547450
_cell_formula_units_Z   2
loop_
 _symmetry_equiv_pos_site_id
 _symmetry_equiv_pos_as_xyz
  1  'x, y, z'
loop_
 _atom_site_type_symbol
 _atom_site_label
 _atom_site_symmetry_multiplicity
 _atom_site_fract_x
 _atom_site_fract_y
 _atom_site_fract_z
 _atom_site_occupancy
  Ni  Ni0  1  0.81392537  0.21155853  0.52682523  1
  Ni  Ni1  1  0.99784507  0.03429322  0.01833571  1
  F  F2  1  0.02937390  0.42925974  0.31574605  1
  F  F3  1  0.21509834  0.23976040  0.80282889  1
  F  F4  1  0.37305880  0.12245519  0.28152281  1
  F  F5  1  0.62270116  0.96391028  0.74896465  1
  F  F6  1  0.74523097  0.84254764  0.24168954  1
  F  F7  1  0.89520980  0.58013660  0.80131158  1
