# generated using pymatgen
data_NpPt3
_symmetry_space_group_name_H-M   P1
_cell_length_a   1.77534556
_cell_length_b   2.72025064
_cell_length_c   3.65476568
_cell_angle_alpha   81.23838376
_cell_angle_beta   78.54879437
_cell_angle_gamma   73.48237732
_symmetry_Int_Tables_number   1
_chemical_formula_structural   NpPt3
_chemical_formula_sum   'Np1 Pt3'
_cell_volume   16.49847637
_cell_formula_units_Z   1
loop_
 _symmetry_equiv_pos_site_id
 _symmetry_equiv_pos_as_xyz
  1  'x, y, z'
loop_
 _atom_site_type_symbol
 _atom_site_label
 _atom_site_symmetry_multiplicity
 _atom_site_fract_x
 _atom_site_fract_y
 _atom_site_fract_z
 _atom_site_occupancy
  Np  Np0  1  0.00000000  0.00000000  0.00000000  1
  Pt  Pt1  1  0.12347281  0.46576333  0.41076386  1
  Pt  Pt2  1  0.24193442  0.00000000  0.44394958  1
  Pt  Pt3  1  0.87123087  0.65003285  -0.00000000  1
