# generated using pymatgen
data_P2HRu2
_symmetry_space_group_name_H-M   P1
_cell_length_a   2.63748550
_cell_length_b   4.45343865
_cell_length_c   4.55314589
_cell_angle_alpha   115.07182905
_cell_angle_beta   94.90408325
_cell_angle_gamma   90.95309532
_symmetry_Int_Tables_number   1
_chemical_formula_structural   P2HRu2
_chemical_formula_sum   'P2 H1 Ru2'
_cell_volume   48.18140817
_cell_formula_units_Z   1
loop_
 _symmetry_equiv_pos_site_id
 _symmetry_equiv_pos_as_xyz
  1  'x, y, z'
loop_
 _atom_site_type_symbol
 _atom_site_label
 _atom_site_symmetry_multiplicity
 _atom_site_fract_x
 _atom_site_fract_y
 _atom_site_fract_z
 _atom_site_occupancy
  P  P0  1  0.49812797  0.81821731  0.37942868  1
  P  P1  1  0.62930465  0.23848891  0.68485367  1
  H  H2  1  0.00000000  0.00000000  0.00000000  1
  Ru  Ru3  1  0.04226288  0.55920938  0.74999911  1
  Ru  Ru4  1  0.78441495  0.61513904  0.26237863  1
