# generated using pymatgen
data_PaHO4
_symmetry_space_group_name_H-M   P1
_cell_length_a   3.51765251
_cell_length_b   3.90967488
_cell_length_c   5.49476624
_cell_angle_alpha   89.03031158
_cell_angle_beta   89.79998016
_cell_angle_gamma   88.02246857
_symmetry_Int_Tables_number   1
_chemical_formula_structural   PaHO4
_chemical_formula_sum   'Pa1 H1 O4'
_cell_volume   75.51270634
_cell_formula_units_Z   1
loop_
 _symmetry_equiv_pos_site_id
 _symmetry_equiv_pos_as_xyz
  1  'x, y, z'
loop_
 _atom_site_type_symbol
 _atom_site_label
 _atom_site_symmetry_multiplicity
 _atom_site_fract_x
 _atom_site_fract_y
 _atom_site_fract_z
 _atom_site_occupancy
  Pa  Pa0  1  0.58783871  0.59257916  0.53186172  1
  H  H1  1  0.00000000  0.00000000  0.00000000  1
  O  O2  1  -0.00000000  0.49494684  0.74179161  1
  O  O3  1  0.00000000  0.61094812  0.22845364  1
  O  O4  1  0.35700119  0.00000000  0.74269164  1
  O  O5  1  0.70156404  0.00000000  0.17757091  1
