# generated using pymatgen
data_PbSeO3
_symmetry_space_group_name_H-M   P1
_cell_length_a   4.78582661
_cell_length_b   5.09485552
_cell_length_c   7.50606867
_cell_angle_alpha   90.67841328
_cell_angle_beta   107.01073964
_cell_angle_gamma   95.68392190
_symmetry_Int_Tables_number   1
_chemical_formula_structural   PbSeO3
_chemical_formula_sum   'Pb2 Se2 O6'
_cell_volume   173.99324701
_cell_formula_units_Z   2
loop_
 _symmetry_equiv_pos_site_id
 _symmetry_equiv_pos_as_xyz
  1  'x, y, z'
loop_
 _atom_site_type_symbol
 _atom_site_label
 _atom_site_symmetry_multiplicity
 _atom_site_fract_x
 _atom_site_fract_y
 _atom_site_fract_z
 _atom_site_occupancy
  Pb  Pb0  1  0.52759363  0.11740178  0.82421361  1
  Pb  Pb1  1  0.54854355  0.76533521  0.38556503  1
  Se  Se2  1  0.05294704  0.25001442  0.20807710  1
  Se  Se3  1  0.08832574  0.62889864  0.83290799  1
  O  O4  1  0.10099615  0.62951780  0.57926935  1
  O  O5  1  0.11791871  0.57983507  0.13906332  1
  O  O6  1  0.16136171  0.90438513  0.52084578  1
  O  O7  1  0.44462950  0.12890099  0.14063927  1
  O  O8  1  0.69212910  0.29736975  0.27566534  1
  O  O9  1  0.71894569  0.70437118  0.78212997  1
