# generated using pymatgen
data_PdPtF6
_symmetry_space_group_name_H-M   P1
_cell_length_a   5.11503274
_cell_length_b   5.23833057
_cell_length_c   5.51533481
_cell_angle_alpha   84.05568079
_cell_angle_beta   67.13908781
_cell_angle_gamma   61.38074340
_symmetry_Int_Tables_number   1
_chemical_formula_structural   PdPtF6
_chemical_formula_sum   'Pd1 Pt1 F6'
_cell_volume   118.91037753
_cell_formula_units_Z   1
loop_
 _symmetry_equiv_pos_site_id
 _symmetry_equiv_pos_as_xyz
  1  'x, y, z'
loop_
 _atom_site_type_symbol
 _atom_site_label
 _atom_site_symmetry_multiplicity
 _atom_site_fract_x
 _atom_site_fract_y
 _atom_site_fract_z
 _atom_site_occupancy
  Pd  Pd0  1  0.98540468  0.01318976  0.94462297  1
  Pt  Pt1  1  0.17355147  0.64816413  0.43388071  1
  F  F2  1  0.13881376  0.33416102  0.64498344  1
  F  F3  1  0.20150452  0.97316889  0.20912010  1
  F  F4  1  0.38489597  0.68126037  0.66315304  1
  F  F5  1  0.57191829  0.38741773  0.13626736  1
  F  F6  1  0.77656255  0.95392744  0.70738929  1
  F  F7  1  0.94584480  0.63212482  0.22967258  1
