# generated using pymatgen
data_Pm2HPb
_symmetry_space_group_name_H-M   Imm2
_cell_length_a   3.98022244
_cell_length_b   4.26658624
_cell_length_c   11.20330470
_cell_angle_alpha   90.00000000
_cell_angle_beta   90.00000000
_cell_angle_gamma   90.00000000
_symmetry_Int_Tables_number   44
_chemical_formula_structural   Pm2HPb
_chemical_formula_sum   'Pm4 H2 Pb2'
_cell_volume   190.25409825
_cell_formula_units_Z   2
loop_
 _symmetry_equiv_pos_site_id
 _symmetry_equiv_pos_as_xyz
  1  'x, y, z'
  2  '-x, -y, z'
  3  '-x, y, z'
  4  'x, -y, z'
  5  'x+1/2, y+1/2, z+1/2'
  6  '-x+1/2, -y+1/2, z+1/2'
  7  '-x+1/2, y+1/2, z+1/2'
  8  'x+1/2, -y+1/2, z+1/2'
loop_
 _atom_site_type_symbol
 _atom_site_label
 _atom_site_symmetry_multiplicity
 _atom_site_fract_x
 _atom_site_fract_y
 _atom_site_fract_z
 _atom_site_occupancy
  Pm  Pm0  2  0.00000000  0.50000000  0.39921377  1
  Pm  Pm1  2  0.00000000  0.50000000  0.70820953  1
  H  H2  2  0.00000000  0.00000000  0.79696233  1
  Pb  Pb3  2  0.00000000  0.50000000  0.05060746  1
