# generated using pymatgen
data_PmCdAg2
_symmetry_space_group_name_H-M   C2/m
_cell_length_a   8.68196854
_cell_length_b   4.95420657
_cell_length_c   5.03136871
_cell_angle_alpha   90.00000000
_cell_angle_beta   123.34013335
_cell_angle_gamma   90.00000000
_symmetry_Int_Tables_number   12
_chemical_formula_structural   PmCdAg2
_chemical_formula_sum   'Pm2 Cd2 Ag4'
_cell_volume   180.79427606
_cell_formula_units_Z   2
loop_
 _symmetry_equiv_pos_site_id
 _symmetry_equiv_pos_as_xyz
  1  'x, y, z'
  2  '-x, -y, -z'
  3  '-x, y, -z'
  4  'x, -y, z'
  5  'x+1/2, y+1/2, z'
  6  '-x+1/2, -y+1/2, -z'
  7  '-x+1/2, y+1/2, -z'
  8  'x+1/2, -y+1/2, z'
loop_
 _atom_site_type_symbol
 _atom_site_label
 _atom_site_symmetry_multiplicity
 _atom_site_fract_x
 _atom_site_fract_y
 _atom_site_fract_z
 _atom_site_occupancy
  Pm  Pm0  2  0.00000000  0.50000000  0.00000000  1
  Cd  Cd1  2  0.00000000  0.00000000  0.50000000  1
  Ag  Ag2  4  0.24626057  0.50000000  0.73142634  1
