# generated using pymatgen
data_PmF3
_symmetry_space_group_name_H-M   P1
_cell_length_a   3.71112975
_cell_length_b   4.14407529
_cell_length_c   4.39076003
_cell_angle_alpha   96.33123539
_cell_angle_beta   113.32654687
_cell_angle_gamma   114.79350924
_symmetry_Int_Tables_number   1
_chemical_formula_structural   PmF3
_chemical_formula_sum   'Pm1 F3'
_cell_volume   53.10895603
_cell_formula_units_Z   1
loop_
 _symmetry_equiv_pos_site_id
 _symmetry_equiv_pos_as_xyz
  1  'x, y, z'
loop_
 _atom_site_type_symbol
 _atom_site_label
 _atom_site_symmetry_multiplicity
 _atom_site_fract_x
 _atom_site_fract_y
 _atom_site_fract_z
 _atom_site_occupancy
  Pm  Pm0  1  0.06427740  0.90019730  0.04142323  1
  F  F1  1  0.37110211  0.50996474  0.04032063  1
  F  F2  1  0.39810433  0.95963580  0.64591353  1
  F  F3  1  0.85735625  0.22872283  0.32475929  1
