# generated using pymatgen
data_PmPrTl2
_symmetry_space_group_name_H-M   P1
_cell_length_a   4.46683640
_cell_length_b   4.79912615
_cell_length_c   5.27553736
_cell_angle_alpha   68.74062624
_cell_angle_beta   68.33696922
_cell_angle_gamma   62.75132991
_symmetry_Int_Tables_number   1
_chemical_formula_structural   PmPrTl2
_chemical_formula_sum   'Pm1 Pr1 Tl2'
_cell_volume   90.83946806
_cell_formula_units_Z   1
loop_
 _symmetry_equiv_pos_site_id
 _symmetry_equiv_pos_as_xyz
  1  'x, y, z'
loop_
 _atom_site_type_symbol
 _atom_site_label
 _atom_site_symmetry_multiplicity
 _atom_site_fract_x
 _atom_site_fract_y
 _atom_site_fract_z
 _atom_site_occupancy
  Pm  Pm0  1  0.00000000  0.00000000  0.00000000  1
  Pr  Pr1  1  0.50837463  0.52623376  0.49994129  1
  Tl  Tl2  1  0.18165663  0.34387589  0.21544054  1
  Tl  Tl3  1  0.76087588  0.79153621  0.70999080  1
