# generated using pymatgen
data_PrBPt4
_symmetry_space_group_name_H-M   P1
_cell_length_a   5.13432646
_cell_length_b   5.33451455
_cell_length_c   7.33437157
_cell_angle_alpha   94.14643963
_cell_angle_beta   91.42265320
_cell_angle_gamma   115.67377008
_symmetry_Int_Tables_number   1
_chemical_formula_structural   PrBPt4
_chemical_formula_sum   'Pr2 B2 Pt8'
_cell_volume   180.22355600
_cell_formula_units_Z   2
loop_
 _symmetry_equiv_pos_site_id
 _symmetry_equiv_pos_as_xyz
  1  'x, y, z'
loop_
 _atom_site_type_symbol
 _atom_site_label
 _atom_site_symmetry_multiplicity
 _atom_site_fract_x
 _atom_site_fract_y
 _atom_site_fract_z
 _atom_site_occupancy
  Pr  Pr0  1  0.00000000  0.00000000  0.00000000  1
  Pr  Pr1  1  0.00000000  0.00000000  0.36677402  1
  B  B2  1  0.16856906  0.52354559  0.30148631  1
  B  B3  1  0.82555979  0.47300971  0.27584219  1
  Pt  Pt4  1  0.26604882  0.73207632  -0.00000000  1
  Pt  Pt5  1  0.33128607  0.33128607  0.29401493  1
  Pt  Pt6  1  0.54758489  0.00000000  0.17037889  1
  Pt  Pt7  1  0.74015927  0.00000000  0.79201752  1
  Pt  Pt8  1  0.74651712  0.74651712  0.67653131  1
  Pt  Pt9  1  0.75958562  0.34671342  0.74176347  1
  Pt  Pt10  1  0.77101380  0.41528988  -0.00000000  1
  Pt  Pt11  1  0.81015027  0.35753143  0.44631490  1
