# generated using pymatgen
data_PrIr5
_symmetry_space_group_name_H-M   P1
_cell_length_a   3.07859945
_cell_length_b   4.69534731
_cell_length_c   5.25355261
_cell_angle_alpha   102.75969672
_cell_angle_beta   104.53576697
_cell_angle_gamma   95.73352051
_symmetry_Int_Tables_number   1
_chemical_formula_structural   PrIr5
_chemical_formula_sum   'Pr1 Ir5'
_cell_volume   70.71739375
_cell_formula_units_Z   1
loop_
 _symmetry_equiv_pos_site_id
 _symmetry_equiv_pos_as_xyz
  1  'x, y, z'
loop_
 _atom_site_type_symbol
 _atom_site_label
 _atom_site_symmetry_multiplicity
 _atom_site_fract_x
 _atom_site_fract_y
 _atom_site_fract_z
 _atom_site_occupancy
  Pr  Pr0  1  0.00000000  0.00000000  0.00000000  1
  Ir  Ir1  1  0.00000000  0.86082643  0.00000000  1
  Ir  Ir2  1  0.49261481  0.25689119  0.74672794  1
  Ir  Ir3  1  0.76131967  0.52072537  0.00000000  1
  Ir  Ir4  1  0.77245548  0.13310680  0.77245548  1
  Ir  Ir5  1  0.88272023  0.59927624  0.59927624  1
