# generated using pymatgen
data_PrLuTl2
_symmetry_space_group_name_H-M   P1
_cell_length_a   4.45341253
_cell_length_b   4.65810874
_cell_length_c   4.92025335
_cell_angle_alpha   61.73329385
_cell_angle_beta   80.15203369
_cell_angle_gamma   70.01880736
_symmetry_Int_Tables_number   1
_chemical_formula_structural   PrLuTl2
_chemical_formula_sum   'Pr1 Lu1 Tl2'
_cell_volume   84.48017367
_cell_formula_units_Z   1
loop_
 _symmetry_equiv_pos_site_id
 _symmetry_equiv_pos_as_xyz
  1  'x, y, z'
loop_
 _atom_site_type_symbol
 _atom_site_label
 _atom_site_symmetry_multiplicity
 _atom_site_fract_x
 _atom_site_fract_y
 _atom_site_fract_z
 _atom_site_occupancy
  Pr  Pr0  1  0.00000000  0.00000000  0.00000000  1
  Lu  Lu1  1  0.41920429  0.09348035  0.49241185  1
  Tl  Tl2  1  0.59253579  0.55819535  0.23409677  1
  Tl  Tl3  1  0.97458065  0.67685801  0.58792597  1
