# generated using pymatgen
data_Pu2S3Cl
_symmetry_space_group_name_H-M   P1
_cell_length_a   3.38021922
_cell_length_b   4.66203022
_cell_length_c   8.28684616
_cell_angle_alpha   98.70050049
_cell_angle_beta   94.37866974
_cell_angle_gamma   95.55934906
_symmetry_Int_Tables_number   1
_chemical_formula_structural   Pu2S3Cl
_chemical_formula_sum   'Pu2 S3 Cl1'
_cell_volume   127.92906650
_cell_formula_units_Z   1
loop_
 _symmetry_equiv_pos_site_id
 _symmetry_equiv_pos_as_xyz
  1  'x, y, z'
loop_
 _atom_site_type_symbol
 _atom_site_label
 _atom_site_symmetry_multiplicity
 _atom_site_fract_x
 _atom_site_fract_y
 _atom_site_fract_z
 _atom_site_occupancy
  Pu  Pu0  1  0.00000000  0.00000000  0.02345622  1
  Pu  Pu1  1  0.47303396  0.60170615  0.55550247  1
  S  S2  1  -0.00000000  0.79404092  0.25008941  1
  S  S3  1  0.54766315  0.00000000  0.62320539  1
  S  S4  1  0.61644706  0.46137127  0.00000000  1
  Cl  Cl5  1  0.00000000  0.00000000  0.78636891  1
