# generated using pymatgen
data_Rb2CrHF6
_symmetry_space_group_name_H-M   P1
_cell_length_a   4.53575206
_cell_length_b   5.08924437
_cell_length_c   5.99389534
_cell_angle_alpha   84.43642830
_cell_angle_beta   68.28685103
_cell_angle_gamma   69.43326782
_symmetry_Int_Tables_number   1
_chemical_formula_structural   Rb2CrHF6
_chemical_formula_sum   'Rb2 Cr1 H1 F6'
_cell_volume   120.26378645
_cell_formula_units_Z   1
loop_
 _symmetry_equiv_pos_site_id
 _symmetry_equiv_pos_as_xyz
  1  'x, y, z'
loop_
 _atom_site_type_symbol
 _atom_site_label
 _atom_site_symmetry_multiplicity
 _atom_site_fract_x
 _atom_site_fract_y
 _atom_site_fract_z
 _atom_site_occupancy
  Rb  Rb0  1  0.26412469  0.55236048  0.86644047  1
  Rb  Rb1  1  0.52014863  0.64060822  0.19842827  1
  Cr  Cr2  1  0.00000000  0.00000000  0.00000000  1
  H  H3  1  0.05178180  0.44490677  0.51708275  1
  F  F4  1  0.03898461  0.79636060  0.73173064  1
  F  F5  1  0.05187124  0.19243795  0.23722965  1
  F  F6  1  0.37784386  0.80215308  0.80224359  1
  F  F7  1  0.53128782  0.32658568  0.25415158  1
  F  F8  1  0.83839056  0.90057710  0.34765181  1
  F  F9  1  0.99365550  0.16900006  0.86154449  1
