# generated using pymatgen
data_Rb2LiAsF6
_symmetry_space_group_name_H-M   P1
_cell_length_a   5.63896922
_cell_length_b   5.91159062
_cell_length_c   6.22729460
_cell_angle_alpha   117.69174942
_cell_angle_beta   115.19342330
_cell_angle_gamma   91.90564778
_symmetry_Int_Tables_number   1
_chemical_formula_structural   Rb2LiAsF6
_chemical_formula_sum   'Rb2 Li1 As1 F6'
_cell_volume   159.25964793
_cell_formula_units_Z   1
loop_
 _symmetry_equiv_pos_site_id
 _symmetry_equiv_pos_as_xyz
  1  'x, y, z'
loop_
 _atom_site_type_symbol
 _atom_site_label
 _atom_site_symmetry_multiplicity
 _atom_site_fract_x
 _atom_site_fract_y
 _atom_site_fract_z
 _atom_site_occupancy
  Rb  Rb0  1  0.26880323  0.75240661  0.46138533  1
  Rb  Rb1  1  0.79138720  0.25791301  0.48137870  1
  Li  Li2  1  0.55290964  0.55400633  0.04861558  1
  As  As3  1  0.02286949  0.98974637  0.94709339  1
  F  F4  1  0.23108905  0.19817230  0.34427840  1
  F  F5  1  0.27261917  0.24830709  0.94111025  1
  F  F6  1  0.29019820  0.75076724  0.96659282  1
  F  F7  1  0.75024262  0.73045915  0.43695581  1
  F  F8  1  0.79106439  0.23545454  0.97606388  1
  F  F9  1  0.79437217  0.75285959  0.98679671  1
