# generated using pymatgen
data_Rb2LiHF6
_symmetry_space_group_name_H-M   P1
_cell_length_a   6.59439564
_cell_length_b   7.02610254
_cell_length_c   7.07315731
_cell_angle_alpha   69.60840607
_cell_angle_beta   71.26495361
_cell_angle_gamma   64.78321075
_symmetry_Int_Tables_number   1
_chemical_formula_structural   Rb2LiHF6
_chemical_formula_sum   'Rb2 Li1 H1 F6'
_cell_volume   272.08175321
_cell_formula_units_Z   1
loop_
 _symmetry_equiv_pos_site_id
 _symmetry_equiv_pos_as_xyz
  1  'x, y, z'
loop_
 _atom_site_type_symbol
 _atom_site_label
 _atom_site_symmetry_multiplicity
 _atom_site_fract_x
 _atom_site_fract_y
 _atom_site_fract_z
 _atom_site_occupancy
  Rb  Rb0  1  0.32534635  0.34097320  0.21346241  1
  Rb  Rb1  1  0.81844237  0.75113779  0.76791590  1
  Li  Li2  1  0.61213022  0.43620932  0.56173483  1
  H  H3  1  0.00000000  0.00000000  0.00000000  1
  F  F4  1  0.14804858  0.74093473  0.42281353  1
  F  F5  1  0.20929849  0.30107176  0.68842483  1
  F  F6  1  0.26338601  0.86974904  0.88308942  1
  F  F7  1  0.67080331  0.22833437  0.72676229  1
  F  F8  1  0.71264014  0.34172457  0.08013749  1
  F  F9  1  0.73082027  0.79694958  0.27221781  1
