# generated using pymatgen
data_Rb2P2Pd
_symmetry_space_group_name_H-M   Cmcm
_cell_length_a   6.66047834
_cell_length_b   14.67145497
_cell_length_c   6.11512837
_cell_angle_alpha   90.00000000
_cell_angle_beta   90.00000000
_cell_angle_gamma   90.00000000
_symmetry_Int_Tables_number   63
_chemical_formula_structural   Rb2P2Pd
_chemical_formula_sum   'Rb8 P8 Pd4'
_cell_volume   597.56366727
_cell_formula_units_Z   4
loop_
 _symmetry_equiv_pos_site_id
 _symmetry_equiv_pos_as_xyz
  1  'x, y, z'
  2  '-x, -y, -z'
  3  '-x, -y, z+1/2'
  4  'x, y, -z+1/2'
  5  'x, -y, -z'
  6  '-x, y, z'
  7  '-x, y, -z+1/2'
  8  'x, -y, z+1/2'
  9  'x+1/2, y+1/2, z'
  10  '-x+1/2, -y+1/2, -z'
  11  '-x+1/2, -y+1/2, z+1/2'
  12  'x+1/2, y+1/2, -z+1/2'
  13  'x+1/2, -y+1/2, -z'
  14  '-x+1/2, y+1/2, z'
  15  '-x+1/2, y+1/2, -z+1/2'
  16  'x+1/2, -y+1/2, z+1/2'
loop_
 _atom_site_type_symbol
 _atom_site_label
 _atom_site_symmetry_multiplicity
 _atom_site_fract_x
 _atom_site_fract_y
 _atom_site_fract_z
 _atom_site_occupancy
  Rb  Rb0  4  0.00000000  0.07782575  0.25000000  1
  Rb  Rb1  4  0.00000000  0.28707333  0.75000000  1
  P  P2  8  0.16026261  0.39413513  0.25000000  1
  Pd  Pd3  4  0.00000000  0.50000000  0.00000000  1
