# generated using pymatgen
data_Rb2TlAgF6
_symmetry_space_group_name_H-M   P-1
_cell_length_a   6.42868223
_cell_length_b   6.47292165
_cell_length_c   6.48031200
_cell_angle_alpha   60.05984973
_cell_angle_beta   60.43726451
_cell_angle_gamma   89.80450346
_symmetry_Int_Tables_number   2
_chemical_formula_structural   Rb2TlAgF6
_chemical_formula_sum   'Rb2 Tl1 Ag1 F6'
_cell_volume   192.41647173
_cell_formula_units_Z   1
loop_
 _symmetry_equiv_pos_site_id
 _symmetry_equiv_pos_as_xyz
  1  'x, y, z'
  2  '-x, -y, -z'
loop_
 _atom_site_type_symbol
 _atom_site_label
 _atom_site_symmetry_multiplicity
 _atom_site_fract_x
 _atom_site_fract_y
 _atom_site_fract_z
 _atom_site_occupancy
  Rb  Rb0  2  0.24644432  0.75530414  0.50133417  1
  Tl  Tl1  1  0.00000000  0.00000000  0.00000000  1
  Ag  Ag2  1  0.50000000  0.50000000  0.00000000  1
  F  F3  2  0.18436063  0.70659369  0.01948403  1
  F  F4  2  0.23041875  0.21407393  0.52102579  1
  F  F5  2  0.29704025  0.20174206  0.97773889  1
