# generated using pymatgen
data_Rb2TeBr6
_symmetry_space_group_name_H-M   P-1
_cell_length_a   7.79375268
_cell_length_b   7.79561975
_cell_length_c   7.80123471
_cell_angle_alpha   61.52740963
_cell_angle_beta   61.79964319
_cell_angle_gamma   60.67774170
_symmetry_Int_Tables_number   2
_chemical_formula_structural   Rb2TeBr6
_chemical_formula_sum   'Rb2 Te1 Br6'
_cell_volume   345.14080585
_cell_formula_units_Z   1
loop_
 _symmetry_equiv_pos_site_id
 _symmetry_equiv_pos_as_xyz
  1  'x, y, z'
  2  '-x, -y, -z'
loop_
 _atom_site_type_symbol
 _atom_site_label
 _atom_site_symmetry_multiplicity
 _atom_site_fract_x
 _atom_site_fract_y
 _atom_site_fract_z
 _atom_site_occupancy
  Rb  Rb0  2  0.24657998  0.75975159  0.75267793  1
  Te  Te1  1  0.00000000  0.50000000  0.50000000  1
  Br  Br2  2  0.19519045  0.26871879  0.79444221  1
  Br  Br3  2  0.24828303  0.20484995  0.30729650  1
  Br  Br4  2  0.28091721  0.70392145  0.26631983  1
