# generated using pymatgen
data_Rb2ZnAsF6
_symmetry_space_group_name_H-M   P1
_cell_length_a   6.23311520
_cell_length_b   6.24322914
_cell_length_c   6.60460186
_cell_angle_alpha   117.38088323
_cell_angle_beta   108.17281342
_cell_angle_gamma   90.51592791
_symmetry_Int_Tables_number   1
_chemical_formula_structural   Rb2ZnAsF6
_chemical_formula_sum   'Rb2 Zn1 As1 F6'
_cell_volume   213.26996207
_cell_formula_units_Z   1
loop_
 _symmetry_equiv_pos_site_id
 _symmetry_equiv_pos_as_xyz
  1  'x, y, z'
loop_
 _atom_site_type_symbol
 _atom_site_label
 _atom_site_symmetry_multiplicity
 _atom_site_fract_x
 _atom_site_fract_y
 _atom_site_fract_z
 _atom_site_occupancy
  Rb  Rb0  1  0.36961621  0.65686858  0.22250175  1
  Rb  Rb1  1  0.77480155  0.18226755  0.45325530  1
  Zn  Zn2  1  0.63488173  0.51790440  0.92032692  1
  As  As3  1  0.00000000  0.00000000  0.00000000  1
  F  F4  1  0.23778456  0.24729994  0.81445768  1
  F  F5  1  0.24969101  0.66777962  0.87712899  1
  F  F6  1  0.37847555  0.42500013  0.77751869  1
  F  F7  1  0.76157686  0.71701419  0.36302865  1
  F  F8  1  0.76860219  0.71426153  0.98804802  1
  F  F9  1  0.86166327  0.25545821  0.04622546  1
