# generated using pymatgen
data_Rb3CrF6
_symmetry_space_group_name_H-M   P1
_cell_length_a   5.10965872
_cell_length_b   5.13609028
_cell_length_c   5.30239974
_cell_angle_alpha   83.91114065
_cell_angle_beta   74.81355374
_cell_angle_gamma   61.55054474
_symmetry_Int_Tables_number   1
_chemical_formula_structural   Rb3CrF6
_chemical_formula_sum   'Rb3 Cr1 F6'
_cell_volume   118.04842592
_cell_formula_units_Z   1
loop_
 _symmetry_equiv_pos_site_id
 _symmetry_equiv_pos_as_xyz
  1  'x, y, z'
loop_
 _atom_site_type_symbol
 _atom_site_label
 _atom_site_symmetry_multiplicity
 _atom_site_fract_x
 _atom_site_fract_y
 _atom_site_fract_z
 _atom_site_occupancy
  Rb  Rb0  1  0.52514464  0.80515525  0.15175006  1
  Rb  Rb1  1  0.59151423  0.30122745  0.73693687  1
  Rb  Rb2  1  0.71103275  0.47651225  0.64941573  1
  Cr  Cr3  1  0.00000000  0.00000000  0.00000000  1
  F  F4  1  0.05618981  0.07898599  0.69427943  1
  F  F5  1  0.18562269  0.82897092  0.42798474  1
  F  F6  1  0.62185803  0.27370471  0.00000000  1
  F  F7  1  0.85343266  0.79809481  0.41293013  1
  F  F8  1  0.95331156  0.88779587  0.73994523  1
  F  F9  1  0.98428395  0.18457150  0.19278470  1
