# generated using pymatgen
data_Rb3P5Pd2
_symmetry_space_group_name_H-M   P1
_cell_length_a   6.67326641
_cell_length_b   6.95295238
_cell_length_c   7.93055244
_cell_angle_alpha   92.45566505
_cell_angle_beta   98.60422280
_cell_angle_gamma   90.78173828
_symmetry_Int_Tables_number   1
_chemical_formula_structural   Rb3P5Pd2
_chemical_formula_sum   'Rb3 P5 Pd2'
_cell_volume   363.41855943
_cell_formula_units_Z   1
loop_
 _symmetry_equiv_pos_site_id
 _symmetry_equiv_pos_as_xyz
  1  'x, y, z'
loop_
 _atom_site_type_symbol
 _atom_site_label
 _atom_site_symmetry_multiplicity
 _atom_site_fract_x
 _atom_site_fract_y
 _atom_site_fract_z
 _atom_site_occupancy
  Rb  Rb0  1  0.29340318  0.46798947  0.12682393  1
  Rb  Rb1  1  0.30314809  0.11303356  0.61352152  1
  Rb  Rb2  1  0.64439955  0.66325009  0.74759620  1
  P  P3  1  0.05122060  0.69908541  0.71283102  1
  P  P4  1  0.14284769  0.83727860  0.33952180  1
  P  P5  1  0.16582519  0.70697105  0.95045227  1
  P  P6  1  0.65282714  0.29306895  0.00000000  1
  P  P7  1  0.85084534  0.15667161  0.78375065  1
  Pd  Pd8  1  0.00000000  0.00000000  0.00000000  1
  Pd  Pd9  1  0.00000000  0.20733751  0.00000000  1
