# generated using pymatgen
data_Rb5P3Pd2
_symmetry_space_group_name_H-M   P1
_cell_length_a   8.33495714
_cell_length_b   8.47463608
_cell_length_c   9.18251991
_cell_angle_alpha   88.01240540
_cell_angle_beta   65.29881799
_cell_angle_gamma   60.60492860
_symmetry_Int_Tables_number   1
_chemical_formula_structural   Rb5P3Pd2
_chemical_formula_sum   'Rb5 P3 Pd2'
_cell_volume   501.35945219
_cell_formula_units_Z   1
loop_
 _symmetry_equiv_pos_site_id
 _symmetry_equiv_pos_as_xyz
  1  'x, y, z'
loop_
 _atom_site_type_symbol
 _atom_site_label
 _atom_site_symmetry_multiplicity
 _atom_site_fract_x
 _atom_site_fract_y
 _atom_site_fract_z
 _atom_site_occupancy
  Rb  Rb0  1  0.19391364  0.47515631  0.15694678  1
  Rb  Rb1  1  0.23805964  0.89034557  0.75153819  1
  Rb  Rb2  1  0.36346835  0.21975124  0.74074474  1
  Rb  Rb3  1  0.64994955  0.58899939  0.23756140  1
  Rb  Rb4  1  0.74551165  0.46180212  0.69785723  1
  P  P5  1  0.00000000  0.80461058  0.72913432  1
  P  P6  1  0.12347430  0.12409014  0.19794953  1
  P  P7  1  0.87319964  0.12680036  0.22905767  1
  Pd  Pd8  1  0.00000000  0.00000000  0.00000000  1
  Pd  Pd9  1  0.00000000  0.00000000  0.50329435  1
