# generated using pymatgen
data_RbAg3Te2
_symmetry_space_group_name_H-M   P1
_cell_length_a   4.84222882
_cell_length_b   9.00585601
_cell_length_c   9.33657668
_cell_angle_alpha   100.04204804
_cell_angle_beta   94.80302985
_cell_angle_gamma   102.15678134
_symmetry_Int_Tables_number   1
_chemical_formula_structural   RbAg3Te2
_chemical_formula_sum   'Rb2 Ag6 Te4'
_cell_volume   388.84478119
_cell_formula_units_Z   2
loop_
 _symmetry_equiv_pos_site_id
 _symmetry_equiv_pos_as_xyz
  1  'x, y, z'
loop_
 _atom_site_type_symbol
 _atom_site_label
 _atom_site_symmetry_multiplicity
 _atom_site_fract_x
 _atom_site_fract_y
 _atom_site_fract_z
 _atom_site_occupancy
  Rb  Rb0  1  0.02550280  0.13488889  0.96073169  1
  Rb  Rb1  1  0.76749435  0.62614567  0.86847252  1
  Ag  Ag2  1  0.08138835  0.13838776  0.38506133  1
  Ag  Ag3  1  0.12355915  0.60053309  0.54672239  1
  Ag  Ag4  1  0.26100012  0.50032809  0.26182895  1
  Ag  Ag5  1  0.59191862  0.15117156  0.57354872  1
  Ag  Ag6  1  0.70209124  0.34294051  0.31469474  1
  Ag  Ag7  1  0.85069860  0.86611757  0.55051623  1
  Te  Te8  1  0.14854557  0.34390710  0.66288181  1
  Te  Te9  1  0.39470637  0.89499309  0.71374046  1
  Te  Te10  1  0.51008814  0.03169371  0.23981621  1
  Te  Te11  1  0.81495446  0.64536480  0.27217428  1
