# generated using pymatgen
data_RbP
_symmetry_space_group_name_H-M   P1
_cell_length_a   6.76071635
_cell_length_b   6.84910648
_cell_length_c   7.04106850
_cell_angle_alpha   81.90386635
_cell_angle_beta   82.35135597
_cell_angle_gamma   64.12056221
_symmetry_Int_Tables_number   1
_chemical_formula_structural   RbP
_chemical_formula_sum   'Rb4 P4'
_cell_volume   289.47496335
_cell_formula_units_Z   4
loop_
 _symmetry_equiv_pos_site_id
 _symmetry_equiv_pos_as_xyz
  1  'x, y, z'
loop_
 _atom_site_type_symbol
 _atom_site_label
 _atom_site_symmetry_multiplicity
 _atom_site_fract_x
 _atom_site_fract_y
 _atom_site_fract_z
 _atom_site_occupancy
  Rb  Rb0  1  0.24683387  0.16397413  0.29753851  1
  Rb  Rb1  1  0.42278059  0.42465661  0.79431230  1
  Rb  Rb2  1  0.63681184  0.60629352  0.16263714  1
  Rb  Rb3  1  0.86818098  0.82563787  0.66695801  1
  P  P4  1  0.00217619  0.17882293  0.87490821  1
  P  P5  1  0.08113290  0.70427669  0.21099648  1
  P  P6  1  0.32602552  0.97660178  0.76942411  1
  P  P7  1  0.86599162  0.02777139  0.11802479  1
