# generated using pymatgen
data_RbSiCl3
_symmetry_space_group_name_H-M   P1
_cell_length_a   6.22770262
_cell_length_b   6.50495937
_cell_length_c   6.60700178
_cell_angle_alpha   102.66480813
_cell_angle_beta   115.35607910
_cell_angle_gamma   97.78043170
_symmetry_Int_Tables_number   1
_chemical_formula_structural   RbSiCl3
_chemical_formula_sum   'Rb2 Si2 Cl6'
_cell_volume   227.86792367
_cell_formula_units_Z   2
loop_
 _symmetry_equiv_pos_site_id
 _symmetry_equiv_pos_as_xyz
  1  'x, y, z'
loop_
 _atom_site_type_symbol
 _atom_site_label
 _atom_site_symmetry_multiplicity
 _atom_site_fract_x
 _atom_site_fract_y
 _atom_site_fract_z
 _atom_site_occupancy
  Rb  Rb0  1  0.31377369  0.21910453  0.33907986  1
  Rb  Rb1  1  0.56728101  0.77705094  0.64097220  1
  Si  Si2  1  0.34097868  0.61747232  0.94769669  1
  Si  Si3  1  0.79762113  0.46070904  0.00000000  1
  Cl  Cl4  1  0.22334328  0.40783435  0.88988787  1
  Cl  Cl5  1  0.42396432  0.00000000  0.68002319  1
  Cl  Cl6  1  0.51930183  0.44167870  0.30400503  1
  Cl  Cl7  1  0.78918302  0.22178113  0.65075684  1
  Cl  Cl8  1  0.84404784  0.08973503  0.37622201  1
  Cl  Cl9  1  0.86246267  0.63825741  0.25785610  1
