# generated using pymatgen
data_RbSrCl3
_symmetry_space_group_name_H-M   P1
_cell_length_a   7.78984439
_cell_length_b   7.89085930
_cell_length_c   8.50856620
_cell_angle_alpha   90.45510783
_cell_angle_beta   114.16034249
_cell_angle_gamma   117.12536857
_symmetry_Int_Tables_number   1
_chemical_formula_structural   RbSrCl3
_chemical_formula_sum   'Rb2 Sr2 Cl6'
_cell_volume   412.33985374
_cell_formula_units_Z   2
loop_
 _symmetry_equiv_pos_site_id
 _symmetry_equiv_pos_as_xyz
  1  'x, y, z'
loop_
 _atom_site_type_symbol
 _atom_site_label
 _atom_site_symmetry_multiplicity
 _atom_site_fract_x
 _atom_site_fract_y
 _atom_site_fract_z
 _atom_site_occupancy
  Rb  Rb0  1  0.30497251  0.17738727  0.85444406  1
  Rb  Rb1  1  0.80120923  0.90807044  0.18633656  1
  Sr  Sr2  1  0.35758308  0.67613515  0.42130667  1
  Sr  Sr3  1  0.59825400  0.25777181  0.44643991  1
  Cl  Cl4  1  0.24038145  0.95190011  0.50700818  1
  Cl  Cl5  1  0.35695538  0.91163213  0.14844442  1
  Cl  Cl6  1  0.43350630  0.46662711  0.20251482  1
  Cl  Cl7  1  0.57278335  0.50881324  0.68395580  1
  Cl  Cl8  1  0.78947807  0.03085679  0.62115670  1
  Cl  Cl9  1  0.91446339  0.37185708  0.30753127  1
