# generated using pymatgen
data_Rh3Se8
_symmetry_space_group_name_H-M   P1
_cell_length_a   5.65695906
_cell_length_b   5.83131552
_cell_length_c   5.88874054
_cell_angle_alpha   80.71983337
_cell_angle_beta   89.18461609
_cell_angle_gamma   88.55282593
_symmetry_Int_Tables_number   1
_chemical_formula_structural   Rh3Se8
_chemical_formula_sum   'Rh3 Se8'
_cell_volume   191.64111155
_cell_formula_units_Z   1
loop_
 _symmetry_equiv_pos_site_id
 _symmetry_equiv_pos_as_xyz
  1  'x, y, z'
loop_
 _atom_site_type_symbol
 _atom_site_label
 _atom_site_symmetry_multiplicity
 _atom_site_fract_x
 _atom_site_fract_y
 _atom_site_fract_z
 _atom_site_occupancy
  Rh  Rh0  1  0.00000000  0.54901379  0.48146290  1
  Rh  Rh1  1  0.52024940  0.00000000  0.37183422  1
  Rh  Rh2  1  0.68306121  0.24765182  0.00000000  1
  Se  Se3  1  0.11704075  0.13193476  0.27877659  1
  Se  Se4  1  0.14040732  0.37227279  0.00000000  1
  Se  Se5  1  0.36514455  0.89458865  0.87929279  1
  Se  Se6  1  0.40177578  0.80535471  0.45185310  1
  Se  Se7  1  0.42084819  0.14253598  0.17683876  1
  Se  Se8  1  0.59060410  0.69518363  0.07506204  1
  Se  Se9  1  0.62824407  0.20691097  0.57938904  1
  Se  Se10  1  0.88463455  0.92013961  0.14489281  1
