# generated using pymatgen
data_RhSe3
_symmetry_space_group_name_H-M   P1
_cell_length_a   5.49754381
_cell_length_b   7.32624435
_cell_length_c   8.31125832
_cell_angle_alpha   76.41892242
_cell_angle_beta   83.20547485
_cell_angle_gamma   85.03641510
_symmetry_Int_Tables_number   1
_chemical_formula_structural   RhSe3
_chemical_formula_sum   'Rh3 Se9'
_cell_volume   322.50299710
_cell_formula_units_Z   3
loop_
 _symmetry_equiv_pos_site_id
 _symmetry_equiv_pos_as_xyz
  1  'x, y, z'
loop_
 _atom_site_type_symbol
 _atom_site_label
 _atom_site_symmetry_multiplicity
 _atom_site_fract_x
 _atom_site_fract_y
 _atom_site_fract_z
 _atom_site_occupancy
  Rh  Rh0  1  0.00000000  0.62873930  0.70716351  1
  Rh  Rh1  1  0.50686270  0.00000000  0.70674935  1
  Rh  Rh2  1  0.60076755  0.58577633  0.00000000  1
  Se  Se3  1  0.00000000  0.00000000  0.00000000  1
  Se  Se4  1  0.20502621  0.57003260  0.09283268  1
  Se  Se5  1  0.28454006  0.95763475  0.37168854  1
  Se  Se6  1  0.32925895  0.33411300  0.56539625  1
  Se  Se7  1  0.48997864  0.90924931  0.00000000  1
  Se  Se8  1  0.53076321  0.55127847  0.43737948  1
  Se  Se9  1  0.54200757  0.15204448  0.11351931  1
  Se  Se10  1  0.71569055  0.77237594  0.84158126  1
  Se  Se11  1  0.79800016  0.12240386  0.61619657  1
