# generated using pymatgen
data_SbOsS
_symmetry_space_group_name_H-M   P1
_cell_length_a   6.50934804
_cell_length_b   6.58370567
_cell_length_c   7.12986857
_cell_angle_alpha   89.05366338
_cell_angle_beta   79.28536918
_cell_angle_gamma   60.66793147
_symmetry_Int_Tables_number   1
_chemical_formula_structural   SbOsS
_chemical_formula_sum   'Sb4 Os4 S4'
_cell_volume   260.74376364
_cell_formula_units_Z   4
loop_
 _symmetry_equiv_pos_site_id
 _symmetry_equiv_pos_as_xyz
  1  'x, y, z'
loop_
 _atom_site_type_symbol
 _atom_site_label
 _atom_site_symmetry_multiplicity
 _atom_site_fract_x
 _atom_site_fract_y
 _atom_site_fract_z
 _atom_site_occupancy
  Sb  Sb0  1  0.22149803  0.10405105  0.09645501  1
  Sb  Sb1  1  0.44611829  0.74550833  0.61131235  1
  Sb  Sb2  1  0.54951372  0.35018947  0.18070234  1
  Sb  Sb3  1  0.83032349  0.96724798  0.83558512  1
  Os  Os4  1  0.25017692  0.70780770  0.96734753  1
  Os  Os5  1  0.66100175  0.66442738  0.99272378  1
  Os  Os6  1  0.84008902  0.44854930  0.31833592  1
  Os  Os7  1  0.94526256  0.51680831  0.68619738  1
  S  S8  1  0.17612572  0.62771269  0.46264407  1
  S  S9  1  0.27874561  0.36019960  0.82617477  1
  S  S10  1  0.86906639  0.75794006  0.18531568  1
  S  S11  1  0.97744955  0.19273705  0.55164620  1
