# generated using pymatgen
data_SbTe2
_symmetry_space_group_name_H-M   C2/m
_cell_length_a   7.58136009
_cell_length_b   4.27046305
_cell_length_c   6.07758904
_cell_angle_alpha   90.00000000
_cell_angle_beta   95.87265067
_cell_angle_gamma   90.00000000
_symmetry_Int_Tables_number   12
_chemical_formula_structural   SbTe2
_chemical_formula_sum   'Sb2 Te4'
_cell_volume   195.73484407
_cell_formula_units_Z   2
loop_
 _symmetry_equiv_pos_site_id
 _symmetry_equiv_pos_as_xyz
  1  'x, y, z'
  2  '-x, -y, -z'
  3  '-x, y, -z'
  4  'x, -y, z'
  5  'x+1/2, y+1/2, z'
  6  '-x+1/2, -y+1/2, -z'
  7  '-x+1/2, y+1/2, -z'
  8  'x+1/2, -y+1/2, z'
loop_
 _atom_site_type_symbol
 _atom_site_label
 _atom_site_symmetry_multiplicity
 _atom_site_fract_x
 _atom_site_fract_y
 _atom_site_fract_z
 _atom_site_occupancy
  Sb  Sb0  2  0.00000000  0.00000000  0.00000000  1
  Te  Te1  4  0.14885280  0.50000000  0.69798484  1
