# generated using pymatgen
data_Sc2BC
_symmetry_space_group_name_H-M   Cm
_cell_length_a   10.82384704
_cell_length_b   3.24900740
_cell_length_c   3.19157495
_cell_angle_alpha   90.00000000
_cell_angle_beta   104.97510144
_cell_angle_gamma   90.00000000
_symmetry_Int_Tables_number   8
_chemical_formula_structural   Sc2BC
_chemical_formula_sum   'Sc4 B2 C2'
_cell_volume   108.42556588
_cell_formula_units_Z   2
loop_
 _symmetry_equiv_pos_site_id
 _symmetry_equiv_pos_as_xyz
  1  'x, y, z'
  2  'x, -y, z'
  3  'x+1/2, y+1/2, z'
  4  'x+1/2, -y+1/2, z'
loop_
 _atom_site_type_symbol
 _atom_site_label
 _atom_site_symmetry_multiplicity
 _atom_site_fract_x
 _atom_site_fract_y
 _atom_site_fract_z
 _atom_site_occupancy
  Sc  Sc0  2  0.15724234  0.50000000  0.45720770  1
  Sc  Sc1  2  0.38769946  0.00000000  0.18880677  1
  B  B2  2  0.03418986  0.00000000  0.84235081  1
  C  C3  2  0.18112644  0.00000000  0.97424574  1
