# generated using pymatgen
data_ScBe5
_symmetry_space_group_name_H-M   P1
_cell_length_a   3.57977830
_cell_length_b   4.25182713
_cell_length_c   4.75980718
_cell_angle_alpha   70.86132150
_cell_angle_beta   76.99744547
_cell_angle_gamma   88.65137427
_symmetry_Int_Tables_number   1
_chemical_formula_structural   ScBe5
_chemical_formula_sum   'Sc1 Be5'
_cell_volume   66.58857108
_cell_formula_units_Z   1
loop_
 _symmetry_equiv_pos_site_id
 _symmetry_equiv_pos_as_xyz
  1  'x, y, z'
loop_
 _atom_site_type_symbol
 _atom_site_label
 _atom_site_symmetry_multiplicity
 _atom_site_fract_x
 _atom_site_fract_y
 _atom_site_fract_z
 _atom_site_occupancy
  Sc  Sc0  1  0.04766076  0.99976176  0.96927354  1
  Be  Be1  1  0.40276338  0.55378656  0.46873227  1
  Be  Be2  1  0.42325151  0.06439446  0.39988286  1
  Be  Be3  1  0.53235294  0.48703823  0.01746569  1
  Be  Be4  1  0.86471084  0.75999367  0.57287950  1
  Be  Be5  1  0.93392632  0.33750313  0.37634439  1
