# generated using pymatgen
data_SiHRu2
_symmetry_space_group_name_H-M   P1
_cell_length_a   2.79390192
_cell_length_b   2.90951279
_cell_length_c   3.00878662
_cell_angle_alpha   65.64688017
_cell_angle_beta   64.66794504
_cell_angle_gamma   69.08332715
_symmetry_Int_Tables_number   1
_chemical_formula_structural   SiHRu2
_chemical_formula_sum   'Si1 H1 Ru2'
_cell_volume   19.64906442
_cell_formula_units_Z   1
loop_
 _symmetry_equiv_pos_site_id
 _symmetry_equiv_pos_as_xyz
  1  'x, y, z'
loop_
 _atom_site_type_symbol
 _atom_site_label
 _atom_site_symmetry_multiplicity
 _atom_site_fract_x
 _atom_site_fract_y
 _atom_site_fract_z
 _atom_site_occupancy
  Si  Si0  1  0.00000000  0.00000000  0.00000000  1
  H  H1  1  0.61685276  0.51144737  0.43783247  1
  Ru  Ru2  1  0.80255124  0.59868655  0.78628892  1
  Ru  Ru3  1  0.96864510  0.18495196  0.43203622  1
