# generated using pymatgen
data_SiIr3
_symmetry_space_group_name_H-M   P1
_cell_length_a   3.41553402
_cell_length_b   3.83557474
_cell_length_c   6.62861064
_cell_angle_alpha   81.76012156
_cell_angle_beta   75.91023604
_cell_angle_gamma   83.34028771
_symmetry_Int_Tables_number   1
_chemical_formula_structural   SiIr3
_chemical_formula_sum   'Si2 Ir6'
_cell_volume   83.05846616
_cell_formula_units_Z   2
loop_
 _symmetry_equiv_pos_site_id
 _symmetry_equiv_pos_as_xyz
  1  'x, y, z'
loop_
 _atom_site_type_symbol
 _atom_site_label
 _atom_site_symmetry_multiplicity
 _atom_site_fract_x
 _atom_site_fract_y
 _atom_site_fract_z
 _atom_site_occupancy
  Si  Si0  1  0.51206449  0.04639629  0.42023635  1
  Si  Si1  1  0.67490405  0.67490405  0.75674754  1
  Ir  Ir2  1  0.39289385  0.17468488  0.82531512  1
  Ir  Ir3  1  0.53636184  0.71922284  0.28077716  1
  Ir  Ir4  1  0.65529075  0.48358151  0.76141167  1
  Ir  Ir5  1  0.79334113  0.20733520  0.19383159  1
  Ir  Ir6  1  0.87001413  0.17227137  0.82772863  1
  Ir  Ir7  1  0.99164978  0.72273186  0.27726814  1
