# generated using pymatgen
data_SiTc2W
_symmetry_space_group_name_H-M   P1
_cell_length_a   2.10312033
_cell_length_b   2.26609471
_cell_length_c   2.67435133
_cell_angle_alpha   81.22310873
_cell_angle_beta   75.37099913
_cell_angle_gamma   66.68983331
_symmetry_Int_Tables_number   1
_chemical_formula_structural   SiTc2W
_chemical_formula_sum   'Si1 Tc2 W1'
_cell_volume   11.30590166
_cell_formula_units_Z   1
loop_
 _symmetry_equiv_pos_site_id
 _symmetry_equiv_pos_as_xyz
  1  'x, y, z'
loop_
 _atom_site_type_symbol
 _atom_site_label
 _atom_site_symmetry_multiplicity
 _atom_site_fract_x
 _atom_site_fract_y
 _atom_site_fract_z
 _atom_site_occupancy
  Tc  Tc0  1  0.07774734  0.51609397  0.69333333  1
  Tc  Tc1  1  0.13169682  0.21278122  0.44173285  1
  Si  Si2  1  0.69056043  0.47911912  0.32042971  1
  W  W3  1  0.00000000  0.00000000  0.00000000  1
