# generated using pymatgen
data_Sm2Ir
_symmetry_space_group_name_H-M   P1
_cell_length_a   4.33747292
_cell_length_b   4.84255748
_cell_length_c   5.01641172
_cell_angle_alpha   61.14156322
_cell_angle_beta   76.78277328
_cell_angle_gamma   71.02736781
_symmetry_Int_Tables_number   1
_chemical_formula_structural   Sm2Ir
_chemical_formula_sum   'Sm2 Ir1'
_cell_volume   86.94082575
_cell_formula_units_Z   1
loop_
 _symmetry_equiv_pos_site_id
 _symmetry_equiv_pos_as_xyz
  1  'x, y, z'
loop_
 _atom_site_type_symbol
 _atom_site_label
 _atom_site_symmetry_multiplicity
 _atom_site_fract_x
 _atom_site_fract_y
 _atom_site_fract_z
 _atom_site_occupancy
  Sm  Sm0  1  0.00000000  0.00000000  0.00000000  1
  Sm  Sm1  1  0.60598201  0.41141564  0.47344691  1
  Ir  Ir2  1  0.81770599  0.77401561  0.68992966  1
