# generated using pymatgen
data_SmAlCu
_symmetry_space_group_name_H-M   Pm
_cell_length_a   6.89033174
_cell_length_b   4.15861862
_cell_length_c   7.04014082
_cell_angle_alpha   90.00000000
_cell_angle_beta   102.47987597
_cell_angle_gamma   90.00000000
_symmetry_Int_Tables_number   6
_chemical_formula_structural   SmAlCu
_chemical_formula_sum   'Sm3 Al3 Cu3'
_cell_volume   196.96355487
_cell_formula_units_Z   3
loop_
 _symmetry_equiv_pos_site_id
 _symmetry_equiv_pos_as_xyz
  1  'x, y, z'
  2  'x, -y, z'
loop_
 _atom_site_type_symbol
 _atom_site_label
 _atom_site_symmetry_multiplicity
 _atom_site_fract_x
 _atom_site_fract_y
 _atom_site_fract_z
 _atom_site_occupancy
  Sm  Sm0  1  0.36242784  0.00000000  0.13693596  1
  Sm  Sm1  1  0.54389095  0.00000000  0.69244558  1
  Sm  Sm2  1  0.89209743  0.00000000  0.32303997  1
  Al  Al3  1  0.23115447  0.50000000  0.43827745  1
  Al  Al4  1  0.91045148  0.50000000  0.63594523  1
  Al  Al5  1  0.98826484  0.50000000  0.02519464  1
  Cu  Cu6  1  0.26116359  0.50000000  0.80925016  1
  Cu  Cu7  1  0.58829861  0.50000000  0.39647434  1
  Cu  Cu8  1  0.99480415  0.00000000  0.83055142  1
