# generated using pymatgen
data_SmAl4Ni
_symmetry_space_group_name_H-M   P1
_cell_length_a   5.58992248
_cell_length_b   5.65789357
_cell_length_c   6.92499149
_cell_angle_alpha   98.36341134
_cell_angle_beta   91.58728074
_cell_angle_gamma   90.12608061
_symmetry_Int_Tables_number   1
_chemical_formula_structural   SmAl4Ni
_chemical_formula_sum   'Sm2 Al8 Ni2'
_cell_volume   216.60138926
_cell_formula_units_Z   2
loop_
 _symmetry_equiv_pos_site_id
 _symmetry_equiv_pos_as_xyz
  1  'x, y, z'
loop_
 _atom_site_type_symbol
 _atom_site_label
 _atom_site_symmetry_multiplicity
 _atom_site_fract_x
 _atom_site_fract_y
 _atom_site_fract_z
 _atom_site_occupancy
  Sm  Sm0  1  0.13144799  0.82095281  0.71209090  1
  Sm  Sm1  1  0.17093635  0.64850268  0.21658322  1
  Al  Al2  1  0.24580866  0.34668236  0.80666104  1
  Al  Al3  1  0.40509125  0.11654699  0.10235558  1
  Al  Al4  1  0.61779469  0.54870429  0.59368829  1
  Al  Al5  1  0.64250178  0.06810550  0.73279860  1
  Al  Al6  1  0.66072108  0.66300415  0.97373014  1
  Al  Al7  1  0.66636766  0.87235644  0.35369287  1
  Al  Al8  1  0.91702493  0.13184008  0.05818927  1
  Al  Al9  1  0.96950472  0.23340006  0.45622355  1
  Ni  Ni10  1  0.39156417  0.19999130  0.46927856  1
  Ni  Ni11  1  0.68153657  0.43317513  0.25243847  1
