# generated using pymatgen
data_SmGaPd
_symmetry_space_group_name_H-M   Pnma
_cell_length_a   7.07617389
_cell_length_b   4.52418961
_cell_length_c   7.75601772
_cell_angle_alpha   90.00000000
_cell_angle_beta   90.00000000
_cell_angle_gamma   90.00000000
_symmetry_Int_Tables_number   62
_chemical_formula_structural   SmGaPd
_chemical_formula_sum   'Sm4 Ga4 Pd4'
_cell_volume   248.30078215
_cell_formula_units_Z   4
loop_
 _symmetry_equiv_pos_site_id
 _symmetry_equiv_pos_as_xyz
  1  'x, y, z'
  2  '-x, -y, -z'
  3  '-x+1/2, -y, z+1/2'
  4  'x+1/2, y, -z+1/2'
  5  'x+1/2, -y+1/2, -z+1/2'
  6  '-x+1/2, y+1/2, z+1/2'
  7  '-x, y+1/2, -z'
  8  'x, -y+1/2, z'
loop_
 _atom_site_type_symbol
 _atom_site_label
 _atom_site_symmetry_multiplicity
 _atom_site_fract_x
 _atom_site_fract_y
 _atom_site_fract_z
 _atom_site_occupancy
  Sm  Sm0  4  0.01948409  0.75000000  0.80113621  1
  Ga  Ga1  4  0.17534363  0.75000000  0.42329660  1
  Pd  Pd2  4  0.21674199  0.25000000  0.59541445  1
