# generated using pymatgen
data_SmGdHg2
_symmetry_space_group_name_H-M   P1
_cell_length_a   4.60729218
_cell_length_b   4.66330481
_cell_length_c   4.68991527
_cell_angle_alpha   111.34898656
_cell_angle_beta   98.09748786
_cell_angle_gamma   112.76838684
_symmetry_Int_Tables_number   1
_chemical_formula_structural   SmGdHg2
_chemical_formula_sum   'Sm1 Gd1 Hg2'
_cell_volume   81.74692441
_cell_formula_units_Z   1
loop_
 _symmetry_equiv_pos_site_id
 _symmetry_equiv_pos_as_xyz
  1  'x, y, z'
loop_
 _atom_site_type_symbol
 _atom_site_label
 _atom_site_symmetry_multiplicity
 _atom_site_fract_x
 _atom_site_fract_y
 _atom_site_fract_z
 _atom_site_occupancy
  Sm  Sm0  1  0.72130281  0.45070398  0.21919644  1
  Gd  Gd1  1  0.16508409  0.52899462  0.77279255  1
  Hg  Hg2  1  0.00000000  0.00000000  0.00000000  1
  Hg  Hg3  1  0.54076946  0.15352345  0.58004379  1
