# generated using pymatgen
data_SmHg2H
_symmetry_space_group_name_H-M   Cm
_cell_length_a   8.79956707
_cell_length_b   4.90538268
_cell_length_c   4.89064162
_cell_angle_alpha   90.00000000
_cell_angle_beta   120.46113677
_cell_angle_gamma   90.00000000
_symmetry_Int_Tables_number   8
_chemical_formula_structural   SmHg2H
_chemical_formula_sum   'Sm2 Hg4 H2'
_cell_volume   181.96749302
_cell_formula_units_Z   2
loop_
 _symmetry_equiv_pos_site_id
 _symmetry_equiv_pos_as_xyz
  1  'x, y, z'
  2  'x, -y, z'
  3  'x+1/2, y+1/2, z'
  4  'x+1/2, -y+1/2, z'
loop_
 _atom_site_type_symbol
 _atom_site_label
 _atom_site_symmetry_multiplicity
 _atom_site_fract_x
 _atom_site_fract_y
 _atom_site_fract_z
 _atom_site_occupancy
  Sm  Sm0  2  0.28902928  0.50000000  0.45998461  1
  Hg  Hg1  2  0.04138312  0.00000000  0.16316853  1
  Hg  Hg2  2  0.34488821  0.00000000  0.06248991  1
  H  H3  2  0.25236751  0.00000000  0.59079510  1
