# generated using pymatgen
data_SnRh2
_symmetry_space_group_name_H-M   P1
_cell_length_a   4.12870359
_cell_length_b   5.03955030
_cell_length_c   10.17444324
_cell_angle_alpha   97.15070343
_cell_angle_beta   98.20094299
_cell_angle_gamma   108.78296661
_symmetry_Int_Tables_number   1
_chemical_formula_structural   SnRh2
_chemical_formula_sum   'Sn4 Rh8'
_cell_volume   195.06639346
_cell_formula_units_Z   4
loop_
 _symmetry_equiv_pos_site_id
 _symmetry_equiv_pos_as_xyz
  1  'x, y, z'
loop_
 _atom_site_type_symbol
 _atom_site_label
 _atom_site_symmetry_multiplicity
 _atom_site_fract_x
 _atom_site_fract_y
 _atom_site_fract_z
 _atom_site_occupancy
  Sn  Sn0  1  0.15868604  0.27098060  0.53676128  1
  Sn  Sn1  1  0.49476519  0.00000000  0.07571435  1
  Sn  Sn2  1  0.78159511  0.61383769  0.58945698  1
  Sn  Sn3  1  0.78926367  0.37520611  0.00000000  1
  Rh  Rh4  1  0.00000000  0.71895945  0.75485957  1
  Rh  Rh5  1  0.24643205  0.55588010  0.04085439  1
  Rh  Rh6  1  0.29959357  0.82738999  0.54271573  1
  Rh  Rh7  1  0.34652480  0.72957474  0.37760007  1
  Rh  Rh8  1  0.66653335  0.56792796  0.19960135  1
  Rh  Rh9  1  0.71242535  0.07942784  0.43179166  1
  Rh  Rh10  1  0.76452368  0.53037053  0.86045608  1
  Rh  Rh11  1  0.77320564  0.05287242  0.33074200  1
