# generated using pymatgen
data_Sr(InAs)2
_symmetry_space_group_name_H-M   P1
_cell_length_a   3.34101796
_cell_length_b   4.20932020
_cell_length_c   15.90832547
_cell_angle_alpha   86.61905489
_cell_angle_beta   86.70242217
_cell_angle_gamma   76.48394383
_symmetry_Int_Tables_number   1
_chemical_formula_structural   Sr(InAs)2
_chemical_formula_sum   'Sr2 In4 As4'
_cell_volume   216.92997813
_cell_formula_units_Z   2
loop_
 _symmetry_equiv_pos_site_id
 _symmetry_equiv_pos_as_xyz
  1  'x, y, z'
loop_
 _atom_site_type_symbol
 _atom_site_label
 _atom_site_symmetry_multiplicity
 _atom_site_fract_x
 _atom_site_fract_y
 _atom_site_fract_z
 _atom_site_occupancy
  Sr  Sr0  1  0.00000000  0.00000000  0.00000000  1
  Sr  Sr1  1  0.94021714  0.41636336  0.35658050  1
  In  In2  1  0.37627941  0.55874044  0.24524122  1
  In  In3  1  0.57942241  0.27624714  0.65588123  1
  In  In4  1  0.67002308  0.63003761  0.91981602  1
  In  In5  1  0.99815974  0.00679326  0.46319169  1
  As  As6  1  0.38181764  0.97202325  0.63587832  1
  As  As7  1  0.56397581  0.06471252  0.91196024  1
  As  As8  1  0.58847427  0.87886936  0.00000000  1
  As  As9  1  0.78400835  0.67331040  0.15366933  1
