# generated using pymatgen
data_Sr2IrPd
_symmetry_space_group_name_H-M   P1
_cell_length_a   4.44609356
_cell_length_b   5.27329226
_cell_length_c   5.46106291
_cell_angle_alpha   102.98493127
_cell_angle_beta   109.27136993
_cell_angle_gamma   112.30580376
_symmetry_Int_Tables_number   1
_chemical_formula_structural   Sr2IrPd
_chemical_formula_sum   'Sr2 Ir1 Pd1'
_cell_volume   102.44866091
_cell_formula_units_Z   1
loop_
 _symmetry_equiv_pos_site_id
 _symmetry_equiv_pos_as_xyz
  1  'x, y, z'
loop_
 _atom_site_type_symbol
 _atom_site_label
 _atom_site_symmetry_multiplicity
 _atom_site_fract_x
 _atom_site_fract_y
 _atom_site_fract_z
 _atom_site_occupancy
  Sr  Sr0  1  0.00000000  0.00000000  0.00000000  1
  Sr  Sr1  1  0.66684991  0.40171689  0.51069367  1
  Ir  Ir2  1  0.33652824  0.18092653  0.68972880  1
  Pd  Pd3  1  0.35147059  0.58491254  0.16899979  1
