# generated using pymatgen
data_Sr2UCu2S5
_symmetry_space_group_name_H-M   P1
_cell_length_a   5.85269658
_cell_length_b   6.88777161
_cell_length_c   9.91141284
_cell_angle_alpha   70.38360641
_cell_angle_beta   79.71212099
_cell_angle_gamma   74.10220957
_symmetry_Int_Tables_number   1
_chemical_formula_structural   Sr2UCu2S5
_chemical_formula_sum   'Sr2 U1 Cu2 S5'
_cell_volume   360.30607926
_cell_formula_units_Z   1
loop_
 _symmetry_equiv_pos_site_id
 _symmetry_equiv_pos_as_xyz
  1  'x, y, z'
loop_
 _atom_site_type_symbol
 _atom_site_label
 _atom_site_symmetry_multiplicity
 _atom_site_fract_x
 _atom_site_fract_y
 _atom_site_fract_z
 _atom_site_occupancy
  Sr  Sr0  1  0.00000000  0.34251243  0.83358529  1
  Sr  Sr1  1  0.17666018  0.43227708  0.14145231  1
  U  U2  1  0.00000000  0.00000000  0.00000000  1
  Cu  Cu3  1  0.40551776  0.32718462  0.66466635  1
  Cu  Cu4  1  0.58879113  0.59436297  0.33581990  1
  S  S5  1  0.15523148  0.95372868  0.65678144  1
  S  S6  1  0.46815467  0.94266421  0.00000000  1
  S  S7  1  0.64785346  0.44772193  0.48222822  1
  S  S8  1  0.77608559  0.66268519  0.03717685  1
  S  S9  1  0.87612605  0.77486682  0.34900713  1
