# generated using pymatgen
data_SrBiClO2
_symmetry_space_group_name_H-M   P2_1/m
_cell_length_a   5.86464968
_cell_length_b   5.65049888
_cell_length_c   6.80974337
_cell_angle_alpha   90.00000000
_cell_angle_beta   109.84086734
_cell_angle_gamma   90.00000000
_symmetry_Int_Tables_number   11
_chemical_formula_structural   SrBiClO2
_chemical_formula_sum   'Sr2 Bi2 Cl2 O4'
_cell_volume   212.26703665
_cell_formula_units_Z   2
loop_
 _symmetry_equiv_pos_site_id
 _symmetry_equiv_pos_as_xyz
  1  'x, y, z'
  2  '-x, -y, -z'
  3  '-x, y+1/2, -z'
  4  'x, -y+1/2, z'
loop_
 _atom_site_type_symbol
 _atom_site_label
 _atom_site_symmetry_multiplicity
 _atom_site_fract_x
 _atom_site_fract_y
 _atom_site_fract_z
 _atom_site_occupancy
  Sr  Sr0  2  0.07610502  0.75000000  0.71007805  1
  Bi  Bi1  2  0.43397948  0.75000000  0.33793204  1
  Cl  Cl2  2  0.21692716  0.25000000  0.97579733  1
  O  O3  4  0.26973009  0.00015572  0.50568543  1
