# generated using pymatgen
data_SrFe2W
_symmetry_space_group_name_H-M   P1
_cell_length_a   2.53106356
_cell_length_b   2.63892414
_cell_length_c   3.25840423
_cell_angle_alpha   67.44389426
_cell_angle_beta   70.14659743
_cell_angle_gamma   63.82445795
_symmetry_Int_Tables_number   1
_chemical_formula_structural   SrFe2W
_chemical_formula_sum   'Sr1 Fe2 W1'
_cell_volume   17.65237906
_cell_formula_units_Z   1
loop_
 _symmetry_equiv_pos_site_id
 _symmetry_equiv_pos_as_xyz
  1  'x, y, z'
loop_
 _atom_site_type_symbol
 _atom_site_label
 _atom_site_symmetry_multiplicity
 _atom_site_fract_x
 _atom_site_fract_y
 _atom_site_fract_z
 _atom_site_occupancy
  Sr  Sr0  1  0.84110060  0.40247208  0.25080973  1
  Fe  Fe1  1  0.60425690  0.39290255  0.51619980  1
  Fe  Fe2  1  0.84628224  0.79156289  0.69084880  1
  W  W3  1  0.00000000  0.00000000  0.00000000  1
