# generated using pymatgen
data_SrSn(BO3)2
_symmetry_space_group_name_H-M   P1
_cell_length_a   4.63506174
_cell_length_b   5.75337666
_cell_length_c   5.83039854
_cell_angle_alpha   69.38668478
_cell_angle_beta   88.42297011
_cell_angle_gamma   81.05186243
_symmetry_Int_Tables_number   1
_chemical_formula_structural   SrSn(BO3)2
_chemical_formula_sum   'Sr1 Sn1 B2 O6'
_cell_volume   143.69298184
_cell_formula_units_Z   1
loop_
 _symmetry_equiv_pos_site_id
 _symmetry_equiv_pos_as_xyz
  1  'x, y, z'
loop_
 _atom_site_type_symbol
 _atom_site_label
 _atom_site_symmetry_multiplicity
 _atom_site_fract_x
 _atom_site_fract_y
 _atom_site_fract_z
 _atom_site_occupancy
  Sr  Sr0  1  0.00000000  0.00000000  0.00000000  1
  Sn  Sn1  1  0.39139521  0.59067243  0.55107373  1
  B  B2  1  0.06279573  0.22572327  0.35699669  1
  B  B3  1  0.57478988  0.85610723  0.74642956  1
  O  O4  1  0.18691853  0.40111127  0.52813506  1
  O  O5  1  0.20061570  0.94049793  0.39832199  1
  O  O6  1  0.34063575  0.59952396  0.93370783  1
  O  O7  1  0.60093814  0.72329611  0.00000000  1
  O  O8  1  0.77627359  0.51782417  0.52023989  1
  O  O9  1  0.83302069  0.00000000  0.63474041  1
