# generated using pymatgen
data_Ta2AlV
_symmetry_space_group_name_H-M   P1
_cell_length_a   3.49021344
_cell_length_b   3.54028869
_cell_length_c   3.69645988
_cell_angle_alpha   99.83692874
_cell_angle_beta   109.51159834
_cell_angle_gamma   116.19512527
_symmetry_Int_Tables_number   1
_chemical_formula_structural   Ta2AlV
_chemical_formula_sum   'Ta2 Al1 V1'
_cell_volume   35.79051957
_cell_formula_units_Z   1
loop_
 _symmetry_equiv_pos_site_id
 _symmetry_equiv_pos_as_xyz
  1  'x, y, z'
loop_
 _atom_site_type_symbol
 _atom_site_label
 _atom_site_symmetry_multiplicity
 _atom_site_fract_x
 _atom_site_fract_y
 _atom_site_fract_z
 _atom_site_occupancy
  Ta  Ta0  1  0.00000000  0.00000000  0.00000000  1
  Ta  Ta1  1  0.24366719  0.79899356  0.55810294  1
  Al  Al2  1  0.87427950  0.87427950  0.87427950  1
  V  V3  1  0.36557990  0.50570232  0.21970654  1
