# generated using pymatgen
data_Ta2B
_symmetry_space_group_name_H-M   P1
_cell_length_a   2.28553057
_cell_length_b   2.80033343
_cell_length_c   3.38340807
_cell_angle_alpha   69.26871183
_cell_angle_beta   82.59718323
_cell_angle_gamma   71.39365384
_symmetry_Int_Tables_number   1
_chemical_formula_structural   Ta2B
_chemical_formula_sum   'Ta4 B2'
_cell_volume   19.19090380
_cell_formula_units_Z   2
loop_
 _symmetry_equiv_pos_site_id
 _symmetry_equiv_pos_as_xyz
  1  'x, y, z'
loop_
 _atom_site_type_symbol
 _atom_site_label
 _atom_site_symmetry_multiplicity
 _atom_site_fract_x
 _atom_site_fract_y
 _atom_site_fract_z
 _atom_site_occupancy
  Ta  Ta0  1  -0.00000000  0.61981356  0.48846948  1
  Ta  Ta1  1  0.47008333  0.23344374  0.07668030  1
  Ta  Ta2  1  0.57643449  0.76846227  0.00606713  1
  Ta  Ta3  1  0.76757312  0.53395593  0.32071027  1
  B  B4  1  -0.00000000  0.70471925  0.19217238  1
  B  B5  1  -0.00000000  0.12008911  0.36384898  1
