# generated using pymatgen
data_Ta2CrOs
_symmetry_space_group_name_H-M   Imm2
_cell_length_a   3.14103926
_cell_length_b   4.39569942
_cell_length_c   9.01618439
_cell_angle_alpha   90.00000000
_cell_angle_beta   90.00000000
_cell_angle_gamma   90.00000000
_symmetry_Int_Tables_number   44
_chemical_formula_structural   Ta2CrOs
_chemical_formula_sum   'Ta4 Cr2 Os2'
_cell_volume   124.48703896
_cell_formula_units_Z   2
loop_
 _symmetry_equiv_pos_site_id
 _symmetry_equiv_pos_as_xyz
  1  'x, y, z'
  2  '-x, -y, z'
  3  '-x, y, z'
  4  'x, -y, z'
  5  'x+1/2, y+1/2, z+1/2'
  6  '-x+1/2, -y+1/2, z+1/2'
  7  '-x+1/2, y+1/2, z+1/2'
  8  'x+1/2, -y+1/2, z+1/2'
loop_
 _atom_site_type_symbol
 _atom_site_label
 _atom_site_symmetry_multiplicity
 _atom_site_fract_x
 _atom_site_fract_y
 _atom_site_fract_z
 _atom_site_occupancy
  Ta  Ta0  2  0.00000000  0.00000000  0.10634589  1
  Ta  Ta1  2  0.00000000  0.50000000  0.86571027  1
  Cr  Cr2  2  0.00000000  0.00000000  0.60692995  1
  Os  Os3  2  0.00000000  0.50000000  0.35644927  1
