# generated using pymatgen
data_Ta2V
_symmetry_space_group_name_H-M   P1
_cell_length_a   2.88849401
_cell_length_b   3.07769259
_cell_length_c   3.69816555
_cell_angle_alpha   70.32646323
_cell_angle_beta   74.41066990
_cell_angle_gamma   70.04579201
_symmetry_Int_Tables_number   1
_chemical_formula_structural   Ta2V
_chemical_formula_sum   'Ta2 V1'
_cell_volume   28.65573399
_cell_formula_units_Z   1
loop_
 _symmetry_equiv_pos_site_id
 _symmetry_equiv_pos_as_xyz
  1  'x, y, z'
loop_
 _atom_site_type_symbol
 _atom_site_label
 _atom_site_symmetry_multiplicity
 _atom_site_fract_x
 _atom_site_fract_y
 _atom_site_fract_z
 _atom_site_occupancy
  Ta  Ta0  1  0.00000000  0.00000000  0.00000000  1
  Ta  Ta1  1  0.52351499  0.05017370  0.44709194  1
  V  V2  1  0.27420962  0.53847122  0.71163845  1
