# generated using pymatgen
data_Ta3N2
_symmetry_space_group_name_H-M   P1
_cell_length_a   1.27577186
_cell_length_b   3.36189494
_cell_length_c   3.41915321
_cell_angle_alpha   71.28097109
_cell_angle_beta   88.94892120
_cell_angle_gamma   85.43412161
_symmetry_Int_Tables_number   1
_chemical_formula_structural   Ta3N2
_chemical_formula_sum   'Ta3 N2'
_cell_volume   13.84459278
_cell_formula_units_Z   1
loop_
 _symmetry_equiv_pos_site_id
 _symmetry_equiv_pos_as_xyz
  1  'x, y, z'
loop_
 _atom_site_type_symbol
 _atom_site_label
 _atom_site_symmetry_multiplicity
 _atom_site_fract_x
 _atom_site_fract_y
 _atom_site_fract_z
 _atom_site_occupancy
  Ta  Ta0  1  0.00000000  0.00000000  0.00000000  1
  Ta  Ta1  1  0.43434519  0.70658386  0.75740588  1
  Ta  Ta2  1  0.69898206  0.27644461  0.31716833  1
  N  N3  1  -0.00000000  0.88550326  0.69464844  1
  N  N4  1  -0.00000000  0.61168611  0.08246595  1
