# generated using pymatgen
data_Ta3Ru2
_symmetry_space_group_name_H-M   P1
_cell_length_a   2.64073968
_cell_length_b   3.59833288
_cell_length_c   15.57769456
_cell_angle_alpha   92.80098109
_cell_angle_beta   90.64415359
_cell_angle_gamma   94.36817932
_symmetry_Int_Tables_number   1
_chemical_formula_structural   Ta3Ru2
_chemical_formula_sum   'Ta6 Ru4'
_cell_volume   147.40036106
_cell_formula_units_Z   2
loop_
 _symmetry_equiv_pos_site_id
 _symmetry_equiv_pos_as_xyz
  1  'x, y, z'
loop_
 _atom_site_type_symbol
 _atom_site_label
 _atom_site_symmetry_multiplicity
 _atom_site_fract_x
 _atom_site_fract_y
 _atom_site_fract_z
 _atom_site_occupancy
  Ta  Ta0  1  0.25728640  0.00000000  0.25728640  1
  Ta  Ta1  1  0.41610003  0.00000000  0.41610003  1
  Ta  Ta2  1  0.56981540  0.00000000  0.56981540  1
  Ta  Ta3  1  0.82324111  0.49282825  0.19436544  1
  Ta  Ta4  1  0.87503529  0.00000000  0.87503529  1
  Ta  Ta5  1  0.94408774  0.00000000  0.94408774  1
  Ru  Ru6  1  0.16719294  0.59214628  0.93246061  1
  Ru  Ru7  1  0.21089754  0.66257173  0.68482363  1
  Ru  Ru8  1  0.25054651  0.40490454  0.82853442  1
  Ru  Ru9  1  0.72613150  0.53164598  0.27123314  1
