# generated using pymatgen
data_Ta4B3
_symmetry_space_group_name_H-M   P1
_cell_length_a   2.37413859
_cell_length_b   3.73999093
_cell_length_c   4.01269087
_cell_angle_alpha   103.33370421
_cell_angle_beta   95.76409592
_cell_angle_gamma   90.35837632
_symmetry_Int_Tables_number   1
_chemical_formula_structural   Ta4B3
_chemical_formula_sum   'Ta4 B3'
_cell_volume   34.47803534
_cell_formula_units_Z   1
loop_
 _symmetry_equiv_pos_site_id
 _symmetry_equiv_pos_as_xyz
  1  'x, y, z'
loop_
 _atom_site_type_symbol
 _atom_site_label
 _atom_site_symmetry_multiplicity
 _atom_site_fract_x
 _atom_site_fract_y
 _atom_site_fract_z
 _atom_site_occupancy
  Ta  Ta0  1  0.44669032  0.86816943  0.75674593  1
  Ta  Ta1  1  0.83700570  0.79379129  0.99990124  1
  Ta  Ta2  1  0.83703437  0.77851489  0.41727850  1
  Ta  Ta3  1  0.99872854  0.34601909  0.52875462  1
  B  B4  1  0.00000000  0.00000000  0.00000000  1
  B  B5  1  0.17637193  0.00000000  0.24678046  1
  B  B6  1  0.89047086  0.00000000  0.90006113  1
