# generated using pymatgen
data_Ta
_symmetry_space_group_name_H-M   P-1
_cell_length_a   1.41298127
_cell_length_b   2.40282695
_cell_length_c   4.02386345
_cell_angle_alpha   103.25979583
_cell_angle_beta   99.78012795
_cell_angle_gamma   100.90513335
_symmetry_Int_Tables_number   2
_chemical_formula_structural   Ta
_chemical_formula_sum   Ta2
_cell_volume   12.72807950
_cell_formula_units_Z   2
loop_
 _symmetry_equiv_pos_site_id
 _symmetry_equiv_pos_as_xyz
  1  'x, y, z'
  2  '-x, -y, -z'
loop_
 _atom_site_type_symbol
 _atom_site_label
 _atom_site_symmetry_multiplicity
 _atom_site_fract_x
 _atom_site_fract_y
 _atom_site_fract_z
 _atom_site_occupancy
  Ta  Ta0  2  0.08658466  0.23003261  0.26542023  1
