# generated using pymatgen
data_TaCo2
_symmetry_space_group_name_H-M   P1
_cell_length_a   2.48197722
_cell_length_b   2.76524159
_cell_length_c   3.09121466
_cell_angle_alpha   110.74979330
_cell_angle_beta   108.63154602
_cell_angle_gamma   101.99299349
_symmetry_Int_Tables_number   1
_chemical_formula_structural   TaCo2
_chemical_formula_sum   'Ta2 Co4'
_cell_volume   17.52323971
_cell_formula_units_Z   2
loop_
 _symmetry_equiv_pos_site_id
 _symmetry_equiv_pos_as_xyz
  1  'x, y, z'
loop_
 _atom_site_type_symbol
 _atom_site_label
 _atom_site_symmetry_multiplicity
 _atom_site_fract_x
 _atom_site_fract_y
 _atom_site_fract_z
 _atom_site_occupancy
  Ta  Ta0  1  0.11138403  0.00000000  0.79525474  1
  Ta  Ta1  1  0.76748538  0.86431730  0.11534613  1
  Co  Co2  1  0.01585805  0.52502352  0.00000000  1
  Co  Co3  1  0.12715095  0.12715095  0.65116400  1
  Co  Co4  1  0.17599225  0.57825059  0.58057708  1
  Co  Co5  1  0.57933122  -0.00000000  0.43285686  1
