# generated using pymatgen
data_TaN
_symmetry_space_group_name_H-M   P1
_cell_length_a   1.68656683
_cell_length_b   3.34020209
_cell_length_c   4.73459572
_cell_angle_alpha   94.97275784
_cell_angle_beta   96.79512160
_cell_angle_gamma   90.89736176
_symmetry_Int_Tables_number   1
_chemical_formula_structural   TaN
_chemical_formula_sum   'Ta3 N3'
_cell_volume   26.37612000
_cell_formula_units_Z   3
loop_
 _symmetry_equiv_pos_site_id
 _symmetry_equiv_pos_as_xyz
  1  'x, y, z'
loop_
 _atom_site_type_symbol
 _atom_site_label
 _atom_site_symmetry_multiplicity
 _atom_site_fract_x
 _atom_site_fract_y
 _atom_site_fract_z
 _atom_site_occupancy
  Ta  Ta0  1  0.00000000  0.00000000  0.00000000  1
  Ta  Ta1  1  0.40622753  0.93335748  0.52407515  1
  Ta  Ta2  1  0.45106268  0.44735998  0.75690871  1
  N  N3  1  -0.00000000  0.53225788  0.00000000  1
  N  N4  1  -0.00000000  0.09053642  0.52084714  1
  N  N5  1  0.00000000  0.47467527  0.47467527  1
