# generated using pymatgen
data_Tb(PRu)2
_symmetry_space_group_name_H-M   P1
_cell_length_a   3.88392663
_cell_length_b   4.58838129
_cell_length_c   6.51036190
_cell_angle_alpha   107.42049612
_cell_angle_beta   101.92107987
_cell_angle_gamma   100.41524506
_symmetry_Int_Tables_number   1
_chemical_formula_structural   Tb(PRu)2
_chemical_formula_sum   'Tb1 P2 Ru2'
_cell_volume   104.59000217
_cell_formula_units_Z   1
loop_
 _symmetry_equiv_pos_site_id
 _symmetry_equiv_pos_as_xyz
  1  'x, y, z'
loop_
 _atom_site_type_symbol
 _atom_site_label
 _atom_site_symmetry_multiplicity
 _atom_site_fract_x
 _atom_site_fract_y
 _atom_site_fract_z
 _atom_site_occupancy
  Tb  Tb0  1  0.00000000  0.00000000  0.00000000  1
  P  P1  1  0.51452872  0.45475990  0.85397825  1
  P  P2  1  0.56193936  0.54112554  0.26016635  1
  Ru  Ru3  1  0.18686610  0.66113791  0.49535680  1
  Ru  Ru4  1  0.72556263  0.34308648  0.53273198  1
