# generated using pymatgen
data_Tb3Sn7
_symmetry_space_group_name_H-M   Cmmm
_cell_length_a   4.40454887
_cell_length_b   26.59389062
_cell_length_c   4.49557523
_cell_angle_alpha   90.00000000
_cell_angle_beta   90.00000000
_cell_angle_gamma   90.00000000
_symmetry_Int_Tables_number   65
_chemical_formula_structural   Tb3Sn7
_chemical_formula_sum   'Tb6 Sn14'
_cell_volume   526.58511722
_cell_formula_units_Z   2
loop_
 _symmetry_equiv_pos_site_id
 _symmetry_equiv_pos_as_xyz
  1  'x, y, z'
  2  '-x, -y, -z'
  3  '-x, -y, z'
  4  'x, y, -z'
  5  'x, -y, -z'
  6  '-x, y, z'
  7  '-x, y, -z'
  8  'x, -y, z'
  9  'x+1/2, y+1/2, z'
  10  '-x+1/2, -y+1/2, -z'
  11  '-x+1/2, -y+1/2, z'
  12  'x+1/2, y+1/2, -z'
  13  'x+1/2, -y+1/2, -z'
  14  '-x+1/2, y+1/2, z'
  15  '-x+1/2, y+1/2, -z'
  16  'x+1/2, -y+1/2, z'
loop_
 _atom_site_type_symbol
 _atom_site_label
 _atom_site_symmetry_multiplicity
 _atom_site_fract_x
 _atom_site_fract_y
 _atom_site_fract_z
 _atom_site_occupancy
  Tb  Tb0  4  0.00000000  0.31118693  0.00000000  1
  Tb  Tb1  2  0.00000000  0.00000000  0.50000000  1
  Sn  Sn2  4  0.00000000  0.09613901  0.00000000  1
  Sn  Sn3  4  0.00000000  0.21121364  0.50000000  1
  Sn  Sn4  4  0.00000000  0.40335089  0.50000000  1
  Sn  Sn5  2  0.00000000  0.50000000  0.00000000  1
