# generated using pymatgen
data_TbZnNi
_symmetry_space_group_name_H-M   P1
_cell_length_a   3.09374094
_cell_length_b   5.17793465
_cell_length_c   6.36609090
_cell_angle_alpha   74.34323247
_cell_angle_beta   85.83577463
_cell_angle_gamma   84.64804840
_symmetry_Int_Tables_number   1
_chemical_formula_structural   TbZnNi
_chemical_formula_sum   'Tb3 Zn3 Ni3'
_cell_volume   97.64785209
_cell_formula_units_Z   3
loop_
 _symmetry_equiv_pos_site_id
 _symmetry_equiv_pos_as_xyz
  1  'x, y, z'
loop_
 _atom_site_type_symbol
 _atom_site_label
 _atom_site_symmetry_multiplicity
 _atom_site_fract_x
 _atom_site_fract_y
 _atom_site_fract_z
 _atom_site_occupancy
  Tb  Tb0  1  -0.00000000  0.81314823  0.49953130  1
  Tb  Tb1  1  0.00000000  0.63792330  -0.00000000  1
  Tb  Tb2  1  0.00000000  0.16508269  0.83491731  1
  Zn  Zn3  1  0.41646111  0.11989570  -0.00000000  1
  Zn  Zn4  1  0.46048731  0.88989168  0.81603557  1
  Zn  Zn5  1  0.68355036  0.82285076  0.17714924  1
  Ni  Ni6  1  0.00000000  0.00000000  0.00000000  1
  Ni  Ni7  1  0.53107104  0.82089713  0.59873229  1
  Ni  Ni8  1  0.53721833  0.46282387  0.26247340  1
