# generated using pymatgen
data_Tc2Pd
_symmetry_space_group_name_H-M   P1
_cell_length_a   3.38379645
_cell_length_b   3.88070726
_cell_length_c   5.20121194
_cell_angle_alpha   85.52845437
_cell_angle_beta   87.12915483
_cell_angle_gamma   86.13594055
_symmetry_Int_Tables_number   1
_chemical_formula_structural   Tc2Pd
_chemical_formula_sum   'Tc6 Pd3'
_cell_volume   67.86811780
_cell_formula_units_Z   3
loop_
 _symmetry_equiv_pos_site_id
 _symmetry_equiv_pos_as_xyz
  1  'x, y, z'
loop_
 _atom_site_type_symbol
 _atom_site_label
 _atom_site_symmetry_multiplicity
 _atom_site_fract_x
 _atom_site_fract_y
 _atom_site_fract_z
 _atom_site_occupancy
  Tc  Tc0  1  0.22741330  0.04801393  0.16259289  1
  Tc  Tc1  1  0.29806805  0.17154416  0.70338160  1
  Tc  Tc2  1  0.41388988  0.71175823  0.17246956  1
  Tc  Tc3  1  0.74414676  0.74872202  0.34523481  1
  Tc  Tc4  1  0.80416441  0.72255874  0.85923243  1
  Tc  Tc5  1  0.81609604  0.31074074  0.81616202  1
  Pd  Pd6  1  0.00000000  0.00000000  0.00000000  1
  Pd  Pd7  1  0.17926764  0.90869024  0.53941026  1
  Pd  Pd8  1  0.77543047  0.40292537  0.33159602  1
