# generated using pymatgen
data_Tc3N
_symmetry_space_group_name_H-M   P1
_cell_length_a   1.16996753
_cell_length_b   3.07666369
_cell_length_c   5.27196715
_cell_angle_alpha   99.37064853
_cell_angle_beta   96.22879764
_cell_angle_gamma   92.45083103
_symmetry_Int_Tables_number   1
_chemical_formula_structural   Tc3N
_chemical_formula_sum   'Tc3 N1'
_cell_volume   18.57782840
_cell_formula_units_Z   1
loop_
 _symmetry_equiv_pos_site_id
 _symmetry_equiv_pos_as_xyz
  1  'x, y, z'
loop_
 _atom_site_type_symbol
 _atom_site_label
 _atom_site_symmetry_multiplicity
 _atom_site_fract_x
 _atom_site_fract_y
 _atom_site_fract_z
 _atom_site_occupancy
  Tc  Tc0  1  0.00180656  0.37037286  -0.00000000  1
  Tc  Tc1  1  0.22516450  0.60210311  0.43373317  1
  Tc  Tc2  1  0.80787420  0.39527279  0.79910111  1
  N  N3  1  0.23450217  0.70921302  0.00000000  1
