# generated using pymatgen
data_Tc3Ni
_symmetry_space_group_name_H-M   P1
_cell_length_a   3.43229508
_cell_length_b   3.94380633
_cell_length_c   4.08655071
_cell_angle_alpha   96.68059935
_cell_angle_beta   98.02066803
_cell_angle_gamma   104.45647169
_symmetry_Int_Tables_number   1
_chemical_formula_structural   Tc3Ni
_chemical_formula_sum   'Tc6 Ni2'
_cell_volume   52.37805456
_cell_formula_units_Z   2
loop_
 _symmetry_equiv_pos_site_id
 _symmetry_equiv_pos_as_xyz
  1  'x, y, z'
loop_
 _atom_site_type_symbol
 _atom_site_label
 _atom_site_symmetry_multiplicity
 _atom_site_fract_x
 _atom_site_fract_y
 _atom_site_fract_z
 _atom_site_occupancy
  Tc  Tc0  1  0.37999028  0.86940670  0.42403400  1
  Tc  Tc1  1  0.42080033  0.00000000  0.30342662  1
  Tc  Tc2  1  0.65260127  0.30490109  0.32176518  1
  Tc  Tc3  1  0.76689157  0.87045908  -0.00000000  1
  Tc  Tc4  1  0.88791865  0.25580221  0.78988600  1
  Tc  Tc5  1  0.97765756  0.64997625  0.15656126  1
  Ni  Ni6  1  0.68199033  0.90240979  0.71291858  1
  Ni  Ni7  1  0.90933087  0.49869081  0.79907015  1
