# generated using pymatgen
data_Tc3N2
_symmetry_space_group_name_H-M   P1
_cell_length_a   1.21158951
_cell_length_b   1.43031180
_cell_length_c   5.81710694
_cell_angle_alpha   93.88109333
_cell_angle_beta   92.77970072
_cell_angle_gamma   114.60323364
_symmetry_Int_Tables_number   1
_chemical_formula_structural   Tc3N2
_chemical_formula_sum   'Tc3 N2'
_cell_volume   9.11180876
_cell_formula_units_Z   1
loop_
 _symmetry_equiv_pos_site_id
 _symmetry_equiv_pos_as_xyz
  1  'x, y, z'
loop_
 _atom_site_type_symbol
 _atom_site_label
 _atom_site_symmetry_multiplicity
 _atom_site_fract_x
 _atom_site_fract_y
 _atom_site_fract_z
 _atom_site_occupancy
  Tc  Tc0  1  0.02991113  0.65832338  0.36146161  1
  Tc  Tc1  1  0.47726339  0.71026996  0.17104244  1
  Tc  Tc2  1  0.99806792  0.40109500  0.85992861  1
  N  N3  1  0.00000000  0.00000000  0.00000000  1
  N  N4  1  0.41936350  0.06187224  -0.00000000  1
