# generated using pymatgen
data_Tc3Pd
_symmetry_space_group_name_H-M   P1
_cell_length_a   4.16757822
_cell_length_b   4.22778034
_cell_length_c   5.17212558
_cell_angle_alpha   97.32546458
_cell_angle_beta   93.04809040
_cell_angle_gamma   94.80672455
_symmetry_Int_Tables_number   1
_chemical_formula_structural   Tc3Pd
_chemical_formula_sum   'Tc6 Pd2'
_cell_volume   89.88090359
_cell_formula_units_Z   2
loop_
 _symmetry_equiv_pos_site_id
 _symmetry_equiv_pos_as_xyz
  1  'x, y, z'
loop_
 _atom_site_type_symbol
 _atom_site_label
 _atom_site_symmetry_multiplicity
 _atom_site_fract_x
 _atom_site_fract_y
 _atom_site_fract_z
 _atom_site_occupancy
  Tc  Tc0  1  -0.00000000  0.87889427  0.87889427  1
  Tc  Tc1  1  0.19354320  0.51200324  0.74847490  1
  Tc  Tc2  1  0.21759185  0.27405411  0.48796248  1
  Tc  Tc3  1  0.55034649  0.58722821  0.47763360  1
  Tc  Tc4  1  0.80215853  0.06259042  0.34950298  1
  Tc  Tc5  1  0.81264973  0.40157175  0.28784293  1
  Pd  Pd6  1  0.25024229  0.39876506  0.26122797  1
  Pd  Pd7  1  0.83812046  0.31199086  0.72735429  1
