# generated using pymatgen
data_Tc
_symmetry_space_group_name_H-M   P1
_cell_length_a   1.35591674
_cell_length_b   2.03495208
_cell_length_c   6.46945095
_cell_angle_alpha   83.83931220
_cell_angle_beta   88.83606720
_cell_angle_gamma   86.07601776
_symmetry_Int_Tables_number   1
_chemical_formula_structural   Tc
_chemical_formula_sum   Tc4
_cell_volume   17.70446516
_cell_formula_units_Z   4
loop_
 _symmetry_equiv_pos_site_id
 _symmetry_equiv_pos_as_xyz
  1  'x, y, z'
loop_
 _atom_site_type_symbol
 _atom_site_label
 _atom_site_symmetry_multiplicity
 _atom_site_fract_x
 _atom_site_fract_y
 _atom_site_fract_z
 _atom_site_occupancy
  Tc  Tc0  1  0.26294559  0.53118807  -0.00000000  1
  Tc  Tc1  1  0.37135643  0.62748152  0.34447613  1
  Tc  Tc2  1  0.42668822  0.22523823  0.87919974  1
  Tc  Tc3  1  0.81211579  0.54661030  -0.00000000  1
