# generated using pymatgen
data_TePt
_symmetry_space_group_name_H-M   Cmc2_1
_cell_length_a   4.04161439
_cell_length_b   8.22694128
_cell_length_c   5.47577463
_cell_angle_alpha   90.00000000
_cell_angle_beta   90.00000000
_cell_angle_gamma   90.00000000
_symmetry_Int_Tables_number   36
_chemical_formula_structural   TePt
_chemical_formula_sum   'Te4 Pt4'
_cell_volume   182.07018700
_cell_formula_units_Z   4
loop_
 _symmetry_equiv_pos_site_id
 _symmetry_equiv_pos_as_xyz
  1  'x, y, z'
  2  '-x, -y, z+1/2'
  3  '-x, y, z'
  4  'x, -y, z+1/2'
  5  'x+1/2, y+1/2, z'
  6  '-x+1/2, -y+1/2, z+1/2'
  7  '-x+1/2, y+1/2, z'
  8  'x+1/2, -y+1/2, z+1/2'
loop_
 _atom_site_type_symbol
 _atom_site_label
 _atom_site_symmetry_multiplicity
 _atom_site_fract_x
 _atom_site_fract_y
 _atom_site_fract_z
 _atom_site_occupancy
  Te  Te0  4  0.00000000  0.35796814  0.63397513  1
  Pt  Pt1  4  0.00000000  0.05130819  0.44202290  1
