# generated using pymatgen
data_Th2CuSi3
_symmetry_space_group_name_H-M   P1
_cell_length_a   3.02538297
_cell_length_b   3.19862819
_cell_length_c   8.07509422
_cell_angle_alpha   88.86746979
_cell_angle_beta   84.42515143
_cell_angle_gamma   69.93953139
_symmetry_Int_Tables_number   1
_chemical_formula_structural   Th2CuSi3
_chemical_formula_sum   'Th2 Cu1 Si3'
_cell_volume   73.04756479
_cell_formula_units_Z   1
loop_
 _symmetry_equiv_pos_site_id
 _symmetry_equiv_pos_as_xyz
  1  'x, y, z'
loop_
 _atom_site_type_symbol
 _atom_site_label
 _atom_site_symmetry_multiplicity
 _atom_site_fract_x
 _atom_site_fract_y
 _atom_site_fract_z
 _atom_site_occupancy
  Th  Th0  1  0.20850164  0.48568445  0.80173835  1
  Th  Th1  1  0.38133574  0.25045758  0.45678389  1
  Si  Si2  1  0.00000000  0.00000000  0.00000000  1
  Si  Si3  1  0.00000000  0.00000000  0.61195004  1
  Cu  Cu4  1  0.65575826  0.73290581  -0.00000000  1
  Si  Si5  1  0.70953834  0.59180677  0.58790705  1
