# generated using pymatgen
data_Th3Al3Co2
_symmetry_space_group_name_H-M   P1
_cell_length_a   3.17973924
_cell_length_b   6.17100525
_cell_length_c   8.58232090
_cell_angle_alpha   103.79998812
_cell_angle_beta   92.18912034
_cell_angle_gamma   90.76856995
_symmetry_Int_Tables_number   1
_chemical_formula_structural   Th3Al3Co2
_chemical_formula_sum   'Th3 Al3 Co2'
_cell_volume   163.37943208
_cell_formula_units_Z   1
loop_
 _symmetry_equiv_pos_site_id
 _symmetry_equiv_pos_as_xyz
  1  'x, y, z'
loop_
 _atom_site_type_symbol
 _atom_site_label
 _atom_site_symmetry_multiplicity
 _atom_site_fract_x
 _atom_site_fract_y
 _atom_site_fract_z
 _atom_site_occupancy
  Th  Th0  1  0.00000000  0.65833279  0.00000000  1
  Th  Th1  1  0.45656189  0.83088434  0.54343811  1
  Th  Th2  1  0.50803399  -0.00000000  0.49196601  1
  Al  Al3  1  0.32919163  0.43450403  0.24998891  1
  Al  Al4  1  0.51081127  0.49534982  0.00000000  1
  Al  Al5  1  0.62357375  0.03531080  0.81399277  1
  Co  Co6  1  0.03653505  0.85629377  0.50403711  1
  Co  Co7  1  0.39148349  0.57918084  0.74720049  1
