# generated using pymatgen
data_ThAlCo
_symmetry_space_group_name_H-M   P1
_cell_length_a   4.38701057
_cell_length_b   4.68075800
_cell_length_c   6.70230660
_cell_angle_alpha   90.39621755
_cell_angle_beta   90.85697704
_cell_angle_gamma   95.04791260
_symmetry_Int_Tables_number   1
_chemical_formula_structural   ThAlCo
_chemical_formula_sum   'Th3 Al3 Co3'
_cell_volume   137.07493495
_cell_formula_units_Z   3
loop_
 _symmetry_equiv_pos_site_id
 _symmetry_equiv_pos_as_xyz
  1  'x, y, z'
loop_
 _atom_site_type_symbol
 _atom_site_label
 _atom_site_symmetry_multiplicity
 _atom_site_fract_x
 _atom_site_fract_y
 _atom_site_fract_z
 _atom_site_occupancy
  Th  Th0  1  -0.00000000  0.12289402  0.57184261  1
  Th  Th1  1  0.00000000  0.55000174  0.00000000  1
  Th  Th2  1  0.00000000  0.31835371  0.31835371  1
  Al  Al3  1  0.36571613  0.70102739  0.90080929  1
  Al  Al4  1  0.38975504  0.22925505  0.22925505  1
  Al  Al5  1  0.61768329  0.06687266  0.81216353  1
  Co  Co6  1  0.00000000  0.00000000  0.00000000  1
  Co  Co7  1  0.56602120  0.70287633  0.39421654  1
  Co  Co8  1  0.58456051  0.22091591  0.63577616  1
