# generated using pymatgen
data_ThGaCo
_symmetry_space_group_name_H-M   P1
_cell_length_a   4.64469433
_cell_length_b   6.18241262
_cell_length_c   8.62478019
_cell_angle_alpha   70.75984376
_cell_angle_beta   88.88336331
_cell_angle_gamma   77.35540771
_symmetry_Int_Tables_number   1
_chemical_formula_structural   ThGaCo
_chemical_formula_sum   'Th3 Ga3 Co3'
_cell_volume   227.78699029
_cell_formula_units_Z   3
loop_
 _symmetry_equiv_pos_site_id
 _symmetry_equiv_pos_as_xyz
  1  'x, y, z'
loop_
 _atom_site_type_symbol
 _atom_site_label
 _atom_site_symmetry_multiplicity
 _atom_site_fract_x
 _atom_site_fract_y
 _atom_site_fract_z
 _atom_site_occupancy
  Th  Th0  1  -0.00000000  0.30340338  0.00000000  1
  Th  Th1  1  0.00000000  0.69572449  0.30427551  1
  Th  Th2  1  0.00000000  0.53943533  0.67518032  1
  Ga  Ga3  1  0.53989413  0.79809189  0.08085132  1
  Ga  Ga4  1  0.67871451  0.85466266  0.32404029  1
  Ga  Ga5  1  0.72321528  0.00000000  0.00000000  1
  Co  Co6  1  0.00000000  0.00000000  0.00000000  1
  Co  Co7  1  0.48502898  0.85929996  0.59576046  1
  Co  Co8  1  0.49138433  0.25142485  0.34179258  1
