# generated using pymatgen
data_Ti2Pt7
_symmetry_space_group_name_H-M   P1
_cell_length_a   2.38076806
_cell_length_b   3.86118412
_cell_length_c   5.20851209
_cell_angle_alpha   83.42532692
_cell_angle_beta   82.40718836
_cell_angle_gamma   74.21979523
_symmetry_Int_Tables_number   1
_chemical_formula_structural   Ti2Pt7
_chemical_formula_sum   'Ti2 Pt7'
_cell_volume   45.51603646
_cell_formula_units_Z   1
loop_
 _symmetry_equiv_pos_site_id
 _symmetry_equiv_pos_as_xyz
  1  'x, y, z'
loop_
 _atom_site_type_symbol
 _atom_site_label
 _atom_site_symmetry_multiplicity
 _atom_site_fract_x
 _atom_site_fract_y
 _atom_site_fract_z
 _atom_site_occupancy
  Ti  Ti0  1  0.15705442  0.59116369  0.63232476  1
  Ti  Ti1  1  0.64923251  0.52575007  0.25292701  1
  Pt  Pt2  1  0.00000000  0.89732155  0.00000000  1
  Pt  Pt3  1  0.19033933  0.28807017  0.60292542  1
  Pt  Pt4  1  0.21389371  0.75607759  0.10757309  1
  Pt  Pt5  1  0.35811090  0.07747245  0.00000000  1
  Pt  Pt6  1  0.41986561  0.30866754  0.17343855  1
  Pt  Pt7  1  0.76252148  0.59703854  0.89168647  1
  Pt  Pt8  1  0.87385133  0.99268985  0.28311110  1
