# generated using pymatgen
data_TiCo3
_symmetry_space_group_name_H-M   P1
_cell_length_a   2.48597336
_cell_length_b   2.79109001
_cell_length_c   2.80015230
_cell_angle_alpha   88.08278656
_cell_angle_beta   81.15457916
_cell_angle_gamma   85.06018829
_symmetry_Int_Tables_number   1
_chemical_formula_structural   TiCo3
_chemical_formula_sum   'Ti1 Co3'
_cell_volume   19.12265414
_cell_formula_units_Z   1
loop_
 _symmetry_equiv_pos_site_id
 _symmetry_equiv_pos_as_xyz
  1  'x, y, z'
loop_
 _atom_site_type_symbol
 _atom_site_label
 _atom_site_symmetry_multiplicity
 _atom_site_fract_x
 _atom_site_fract_y
 _atom_site_fract_z
 _atom_site_occupancy
  Ti  Ti0  1  0.00000000  0.00000000  0.00000000  1
  Co  Co1  1  0.00000000  0.47033906  0.49159142  1
  Co  Co2  1  0.63518167  0.00000000  0.57482213  1
  Co  Co3  1  0.64837569  0.40077829  -0.00000000  1
