# generated using pymatgen
data_TiCuF6
_symmetry_space_group_name_H-M   P-1
_cell_length_a   4.71980007
_cell_length_b   4.98605188
_cell_length_c   5.34932453
_cell_angle_alpha   115.56285251
_cell_angle_beta   93.07146819
_cell_angle_gamma   115.67995167
_symmetry_Int_Tables_number   2
_chemical_formula_structural   TiCuF6
_chemical_formula_sum   'Ti1 Cu1 F6'
_cell_volume   97.76376602
_cell_formula_units_Z   1
loop_
 _symmetry_equiv_pos_site_id
 _symmetry_equiv_pos_as_xyz
  1  'x, y, z'
  2  '-x, -y, -z'
loop_
 _atom_site_type_symbol
 _atom_site_label
 _atom_site_symmetry_multiplicity
 _atom_site_fract_x
 _atom_site_fract_y
 _atom_site_fract_z
 _atom_site_occupancy
  Ti  Ti0  1  0.50000000  0.00000000  0.50000000  1
  Cu  Cu1  1  0.00000000  0.00000000  0.00000000  1
  F  F2  2  0.13623934  0.56570004  0.26785231  1
  F  F3  2  0.24785547  0.12569209  0.74696253  1
  F  F4  2  0.39467303  0.16169437  0.26394449  1
