# generated using pymatgen
data_TiN
_symmetry_space_group_name_H-M   P1
_cell_length_a   2.39402120
_cell_length_b   2.43706989
_cell_length_c   2.60406009
_cell_angle_alpha   91.21922605
_cell_angle_beta   109.98348404
_cell_angle_gamma   114.10153780
_symmetry_Int_Tables_number   1
_chemical_formula_structural   TiN
_chemical_formula_sum   'Ti1 N1'
_cell_volume   12.80251012
_cell_formula_units_Z   1
loop_
 _symmetry_equiv_pos_site_id
 _symmetry_equiv_pos_as_xyz
  1  'x, y, z'
loop_
 _atom_site_type_symbol
 _atom_site_label
 _atom_site_symmetry_multiplicity
 _atom_site_fract_x
 _atom_site_fract_y
 _atom_site_fract_z
 _atom_site_occupancy
  Ti  Ti0  1  0.00000000  0.00000000  0.00000000  1
  N  N1  1  0.03975150  0.53057918  0.54500368  1
