# generated using pymatgen
data_TiPt3
_symmetry_space_group_name_H-M   P1
_cell_length_a   2.43879485
_cell_length_b   3.48994135
_cell_length_c   3.82458000
_cell_angle_alpha   67.18635688
_cell_angle_beta   72.03042003
_cell_angle_gamma   83.02755369
_symmetry_Int_Tables_number   1
_chemical_formula_structural   TiPt3
_chemical_formula_sum   'Ti2 Pt6'
_cell_volume   28.54173767
_cell_formula_units_Z   2
loop_
 _symmetry_equiv_pos_site_id
 _symmetry_equiv_pos_as_xyz
  1  'x, y, z'
loop_
 _atom_site_type_symbol
 _atom_site_label
 _atom_site_symmetry_multiplicity
 _atom_site_fract_x
 _atom_site_fract_y
 _atom_site_fract_z
 _atom_site_occupancy
  Ti  Ti0  1  0.20506334  0.70755976  0.92109603  1
  Ti  Ti1  1  0.28253999  0.31319419  0.95275423  1
  Pt  Pt2  1  0.13900143  0.81280077  0.50768000  1
  Pt  Pt3  1  0.20686367  0.92196983  0.31254846  1
  Pt  Pt4  1  0.38325024  0.19912669  0.08639598  1
  Pt  Pt5  1  0.43196607  -0.00000000  0.81903076  1
  Pt  Pt6  1  0.55102348  0.15216208  0.71741903  1
  Pt  Pt7  1  0.66000998  0.22608593  0.88781816  1
