# generated using pymatgen
data_TiPt4
_symmetry_space_group_name_H-M   P1
_cell_length_a   3.08736062
_cell_length_b   3.96820426
_cell_length_c   6.94126599
_cell_angle_alpha   92.15505753
_cell_angle_beta   100.97232161
_cell_angle_gamma   93.44490814
_symmetry_Int_Tables_number   1
_chemical_formula_structural   TiPt4
_chemical_formula_sum   'Ti2 Pt8'
_cell_volume   83.22951961
_cell_formula_units_Z   2
loop_
 _symmetry_equiv_pos_site_id
 _symmetry_equiv_pos_as_xyz
  1  'x, y, z'
loop_
 _atom_site_type_symbol
 _atom_site_label
 _atom_site_symmetry_multiplicity
 _atom_site_fract_x
 _atom_site_fract_y
 _atom_site_fract_z
 _atom_site_occupancy
  Ti  Ti0  1  0.43562847  0.29148424  0.29802036  1
  Ti  Ti1  1  0.65462264  0.80507693  0.68995818  1
  Pt  Pt2  1  0.00000000  0.00000000  0.00000000  1
  Pt  Pt3  1  0.18817598  0.63198912  0.19130659  1
  Pt  Pt4  1  0.29444531  0.00000000  0.70555469  1
  Pt  Pt5  1  0.53876126  0.10954988  0.00000000  1
  Pt  Pt6  1  0.59903926  0.35271835  0.85787761  1
  Pt  Pt7  1  0.62088078  0.61059526  0.21341693  1
  Pt  Pt8  1  0.72497612  0.59505534  0.43619138  1
  Pt  Pt9  1  0.86131996  0.82987872  0.68852836  1
