# generated using pymatgen
data_TiRu3
_symmetry_space_group_name_H-M   P1
_cell_length_a   2.14928246
_cell_length_b   2.78139377
_cell_length_c   3.65494037
_cell_angle_alpha   98.26801300
_cell_angle_beta   90.52210999
_cell_angle_gamma   108.52557373
_symmetry_Int_Tables_number   1
_chemical_formula_structural   TiRu3
_chemical_formula_sum   'Ti1 Ru3'
_cell_volume   20.46672606
_cell_formula_units_Z   1
loop_
 _symmetry_equiv_pos_site_id
 _symmetry_equiv_pos_as_xyz
  1  'x, y, z'
loop_
 _atom_site_type_symbol
 _atom_site_label
 _atom_site_symmetry_multiplicity
 _atom_site_fract_x
 _atom_site_fract_y
 _atom_site_fract_z
 _atom_site_occupancy
  Ti  Ti0  1  0.00000000  0.00000000  0.00000000  1
  Ru  Ru1  1  0.00000000  0.56520879  0.50098220  1
  Ru  Ru2  1  0.45206761  0.52150059  0.00000000  1
  Ru  Ru3  1  0.48896158  -0.00000000  0.61580288  1
