# generated using pymatgen
data_TiSiRu2
_symmetry_space_group_name_H-M   P1
_cell_length_a   2.69811618
_cell_length_b   3.03244424
_cell_length_c   3.47446946
_cell_angle_alpha   74.31859877
_cell_angle_beta   80.93148290
_cell_angle_gamma   76.37585268
_symmetry_Int_Tables_number   1
_chemical_formula_structural   TiSiRu2
_chemical_formula_sum   'Ti1 Si1 Ru2'
_cell_volume   26.46507269
_cell_formula_units_Z   1
loop_
 _symmetry_equiv_pos_site_id
 _symmetry_equiv_pos_as_xyz
  1  'x, y, z'
loop_
 _atom_site_type_symbol
 _atom_site_label
 _atom_site_symmetry_multiplicity
 _atom_site_fract_x
 _atom_site_fract_y
 _atom_site_fract_z
 _atom_site_occupancy
  Ti  Ti0  1  0.71921599  0.06210536  0.54780608  1
  Si  Si1  1  0.28642061  0.16101697  0.29199576  1
  Ru  Ru2  1  0.00000000  0.00000000  0.00000000  1
  Ru  Ru3  1  0.38043261  0.75273317  0.36772960  1
