# generated using pymatgen
data_Tl2GaHF6
_symmetry_space_group_name_H-M   P1
_cell_length_a   4.81034481
_cell_length_b   6.27598033
_cell_length_c   6.28970065
_cell_angle_alpha   69.47440993
_cell_angle_beta   88.61912967
_cell_angle_gamma   72.01231340
_symmetry_Int_Tables_number   1
_chemical_formula_structural   Tl2GaHF6
_chemical_formula_sum   'Tl2 Ga1 H1 F6'
_cell_volume   168.38033497
_cell_formula_units_Z   1
loop_
 _symmetry_equiv_pos_site_id
 _symmetry_equiv_pos_as_xyz
  1  'x, y, z'
loop_
 _atom_site_type_symbol
 _atom_site_label
 _atom_site_symmetry_multiplicity
 _atom_site_fract_x
 _atom_site_fract_y
 _atom_site_fract_z
 _atom_site_occupancy
  Tl  Tl0  1  0.19745930  0.51929590  0.85104626  1
  Tl  Tl1  1  0.49612444  0.15947194  0.51640783  1
  Ga  Ga2  1  0.72097576  0.74790063  0.20985732  1
  H  H3  1  0.04305719  0.01601456  0.96321642  1
  F  F4  1  0.00041910  0.14781233  0.80930995  1
  F  F5  1  0.08324531  0.81528099  0.16694994  1
  F  F6  1  0.51819589  0.08266654  0.12787608  1
  F  F7  1  0.60252324  0.75546688  0.92806288  1
  F  F8  1  0.61823669  0.69938876  0.50315877  1
  F  F9  1  0.92717739  0.41620952  0.28647686  1
