# generated using pymatgen
data_Tl2InHF6
_symmetry_space_group_name_H-M   P-1
_cell_length_a   6.08861089
_cell_length_b   6.11401019
_cell_length_c   6.41794006
_cell_angle_alpha   62.27172080
_cell_angle_beta   72.77796822
_cell_angle_gamma   60.77800404
_symmetry_Int_Tables_number   2
_chemical_formula_structural   Tl2InHF6
_chemical_formula_sum   'Tl2 In1 H1 F6'
_cell_volume   183.82745387
_cell_formula_units_Z   1
loop_
 _symmetry_equiv_pos_site_id
 _symmetry_equiv_pos_as_xyz
  1  'x, y, z'
  2  '-x, -y, -z'
loop_
 _atom_site_type_symbol
 _atom_site_label
 _atom_site_symmetry_multiplicity
 _atom_site_fract_x
 _atom_site_fract_y
 _atom_site_fract_z
 _atom_site_occupancy
  Tl  Tl0  2  0.35269448  0.92427624  0.78292983  1
  In  In1  1  0.00000000  0.50000000  0.00000000  1
  H  H2  1  0.00000000  0.50000000  0.50000000  1
  F  F3  2  0.09472733  0.45162901  0.33359278  1
  F  F4  2  0.10449469  0.08639857  0.13281934  1
  F  F5  2  0.36726791  0.44540294  0.86446512  1
