# generated using pymatgen
data_Tl3FeF6
_symmetry_space_group_name_H-M   P-1
_cell_length_a   6.17289531
_cell_length_b   6.41742270
_cell_length_c   6.46004425
_cell_angle_alpha   63.81225641
_cell_angle_beta   63.08191884
_cell_angle_gamma   62.23195797
_symmetry_Int_Tables_number   2
_chemical_formula_structural   Tl3FeF6
_chemical_formula_sum   'Tl3 Fe1 F6'
_cell_volume   193.10430698
_cell_formula_units_Z   1
loop_
 _symmetry_equiv_pos_site_id
 _symmetry_equiv_pos_as_xyz
  1  'x, y, z'
  2  '-x, -y, -z'
loop_
 _atom_site_type_symbol
 _atom_site_label
 _atom_site_symmetry_multiplicity
 _atom_site_fract_x
 _atom_site_fract_y
 _atom_site_fract_z
 _atom_site_occupancy
  Tl  Tl0  2  0.25666264  0.24087648  0.72907168  1
  Tl  Tl1  1  0.50000000  0.50000000  0.00000000  1
  Fe  Fe2  1  0.00000000  0.00000000  0.50000000  1
  F  F3  2  0.11166122  0.84014209  0.79049773  1
  F  F4  2  0.23546463  0.71169983  0.37931154  1
  F  F5  2  0.27936018  0.14496613  0.33548903  1
