# generated using pymatgen
data_TlGeCl3
_symmetry_space_group_name_H-M   P1
_cell_length_a   5.44726390
_cell_length_b   5.65743000
_cell_length_c   5.95878781
_cell_angle_alpha   97.63626539
_cell_angle_beta   95.18134042
_cell_angle_gamma   90.81920924
_symmetry_Int_Tables_number   1
_chemical_formula_structural   TlGeCl3
_chemical_formula_sum   'Tl1 Ge1 Cl3'
_cell_volume   181.19843936
_cell_formula_units_Z   1
loop_
 _symmetry_equiv_pos_site_id
 _symmetry_equiv_pos_as_xyz
  1  'x, y, z'
loop_
 _atom_site_type_symbol
 _atom_site_label
 _atom_site_symmetry_multiplicity
 _atom_site_fract_x
 _atom_site_fract_y
 _atom_site_fract_z
 _atom_site_occupancy
  Tl  Tl0  1  0.03771243  0.97396143  0.18598475  1
  Ge  Ge1  1  0.54104902  0.58442807  0.55798950  1
  Cl  Cl2  1  0.10056401  0.53746744  0.45653695  1
  Cl  Cl3  1  0.51827476  0.64960098  0.95376273  1
  Cl  Cl4  1  0.56404422  0.00203957  0.51706120  1
