# generated using pymatgen
data_TmLuTl2
_symmetry_space_group_name_H-M   P1
_cell_length_a   3.88053751
_cell_length_b   4.50901877
_cell_length_c   4.66067659
_cell_angle_alpha   66.90739577
_cell_angle_beta   66.55403359
_cell_angle_gamma   72.17711640
_symmetry_Int_Tables_number   1
_chemical_formula_structural   TmLuTl2
_chemical_formula_sum   'Tm1 Lu1 Tl2'
_cell_volume   67.72569750
_cell_formula_units_Z   1
loop_
 _symmetry_equiv_pos_site_id
 _symmetry_equiv_pos_as_xyz
  1  'x, y, z'
loop_
 _atom_site_type_symbol
 _atom_site_label
 _atom_site_symmetry_multiplicity
 _atom_site_fract_x
 _atom_site_fract_y
 _atom_site_fract_z
 _atom_site_occupancy
  Tm  Tm0  1  0.00000000  0.00000000  0.00000000  1
  Lu  Lu1  1  0.64211935  0.46581131  0.38044882  1
  Tl  Tl2  1  0.45529729  0.14251927  0.18021339  1
  Tl  Tl3  1  0.93735421  0.72987455  0.68770790  1
