# generated using pymatgen
data_TmMgCu
_symmetry_space_group_name_H-M   P1
_cell_length_a   4.82022095
_cell_length_b   7.36475086
_cell_length_c   9.69151211
_cell_angle_alpha   105.86811829
_cell_angle_beta   94.53627777
_cell_angle_gamma   95.00665283
_symmetry_Int_Tables_number   1
_chemical_formula_structural   TmMgCu
_chemical_formula_sum   'Tm3 Mg3 Cu3'
_cell_volume   327.76469106
_cell_formula_units_Z   3
loop_
 _symmetry_equiv_pos_site_id
 _symmetry_equiv_pos_as_xyz
  1  'x, y, z'
loop_
 _atom_site_type_symbol
 _atom_site_label
 _atom_site_symmetry_multiplicity
 _atom_site_fract_x
 _atom_site_fract_y
 _atom_site_fract_z
 _atom_site_occupancy
  Tm  Tm0  1  0.00000000  0.00000000  0.42051452  1
  Tm  Tm1  1  0.00000000  0.34457707  0.00000000  1
  Tm  Tm2  1  0.00000000  0.63314247  0.65197363  1
  Mg  Mg3  1  0.37282920  0.00000000  0.64408827  1
  Mg  Mg4  1  0.41461581  0.20344090  0.30031532  1
  Mg  Mg5  1  0.61554605  0.67826039  0.00000000  1
  Cu  Cu6  1  0.00000000  0.00000000  0.00000000  1
  Cu  Cu7  1  0.39029157  0.43912560  0.58234531  1
  Cu  Cu8  1  0.67992860  0.43705797  0.25966185  1
