# generated using pymatgen
data_TmTl3
_symmetry_space_group_name_H-M   Amm2
_cell_length_a   3.72056090
_cell_length_b   8.48326565
_cell_length_c   7.10215135
_cell_angle_alpha   90.00000000
_cell_angle_beta   90.00000000
_cell_angle_gamma   90.00000000
_symmetry_Int_Tables_number   38
_chemical_formula_structural   TmTl3
_chemical_formula_sum   'Tm2 Tl6'
_cell_volume   224.16169812
_cell_formula_units_Z   2
loop_
 _symmetry_equiv_pos_site_id
 _symmetry_equiv_pos_as_xyz
  1  'x, y, z'
  2  '-x, -y, z'
  3  '-x, y, z'
  4  'x, -y, z'
  5  'x, y+1/2, z+1/2'
  6  '-x, -y+1/2, z+1/2'
  7  '-x, y+1/2, z+1/2'
  8  'x, -y+1/2, z+1/2'
loop_
 _atom_site_type_symbol
 _atom_site_label
 _atom_site_symmetry_multiplicity
 _atom_site_fract_x
 _atom_site_fract_y
 _atom_site_fract_z
 _atom_site_occupancy
  Tm  Tm0  2  0.00000000  0.00000000  0.06592206  1
  Tl  Tl1  4  0.50000000  0.23936380  0.80598141  1
  Tl  Tl2  2  0.00000000  0.00000000  0.54608232  1
