# generated using pymatgen
data_UHO3
_symmetry_space_group_name_H-M   P1
_cell_length_a   4.14381456
_cell_length_b   4.81184578
_cell_length_c   4.85766172
_cell_angle_alpha   82.18397522
_cell_angle_beta   87.97670746
_cell_angle_gamma   82.83417511
_symmetry_Int_Tables_number   1
_chemical_formula_structural   UHO3
_chemical_formula_sum   'U1 H1 O3'
_cell_volume   95.19292475
_cell_formula_units_Z   1
loop_
 _symmetry_equiv_pos_site_id
 _symmetry_equiv_pos_as_xyz
  1  'x, y, z'
loop_
 _atom_site_type_symbol
 _atom_site_label
 _atom_site_symmetry_multiplicity
 _atom_site_fract_x
 _atom_site_fract_y
 _atom_site_fract_z
 _atom_site_occupancy
  U  U0  1  0.00000000  0.00000000  0.00000000  1
  H  H1  1  0.57208312  0.59006095  0.43830639  1
  O  O2  1  -0.00000000  0.48862389  0.00000000  1
  O  O3  1  0.00000000  0.00000000  0.69475862  1
  O  O4  1  0.49403608  0.00000000  0.00000000  1
