# generated using pymatgen
data_V2Re
_symmetry_space_group_name_H-M   P1
_cell_length_a   2.54523754
_cell_length_b   3.07012385
_cell_length_c   4.69296089
_cell_angle_alpha   71.86630455
_cell_angle_beta   86.24432456
_cell_angle_gamma   80.95049166
_symmetry_Int_Tables_number   1
_chemical_formula_structural   V2Re
_chemical_formula_sum   'V2 Re1'
_cell_volume   34.41119042
_cell_formula_units_Z   1
loop_
 _symmetry_equiv_pos_site_id
 _symmetry_equiv_pos_as_xyz
  1  'x, y, z'
loop_
 _atom_site_type_symbol
 _atom_site_label
 _atom_site_symmetry_multiplicity
 _atom_site_fract_x
 _atom_site_fract_y
 _atom_site_fract_z
 _atom_site_occupancy
  V  V0  1  0.00464338  0.58952796  0.74524754  1
  V  V1  1  0.35309947  0.24655810  0.18800959  1
  Re  Re2  1  0.46325856  0.52592331  0.44752806  1
