# generated using pymatgen
data_V2ReOs
_symmetry_space_group_name_H-M   P1
_cell_length_a   2.16764595
_cell_length_b   2.46926713
_cell_length_c   3.19469244
_cell_angle_alpha   109.76098097
_cell_angle_beta   93.85010322
_cell_angle_gamma   113.86517170
_symmetry_Int_Tables_number   1
_chemical_formula_structural   V2ReOs
_chemical_formula_sum   'V2 Re1 Os1'
_cell_volume   14.29756372
_cell_formula_units_Z   1
loop_
 _symmetry_equiv_pos_site_id
 _symmetry_equiv_pos_as_xyz
  1  'x, y, z'
loop_
 _atom_site_type_symbol
 _atom_site_label
 _atom_site_symmetry_multiplicity
 _atom_site_fract_x
 _atom_site_fract_y
 _atom_site_fract_z
 _atom_site_occupancy
  V  V0  1  0.42287838  0.00355145  0.18609875  1
  V  V1  1  0.52202803  0.01671207  0.76549643  1
  Re  Re2  1  0.95539397  0.04588962  0.42703861  1
  Os  Os3  1  0.00000000  0.00000000  0.00000000  1
