# generated using pymatgen
data_V3Ir
_symmetry_space_group_name_H-M   P1
_cell_length_a   2.86201859
_cell_length_b   3.26003551
_cell_length_c   4.48456740
_cell_angle_alpha   73.01420726
_cell_angle_beta   86.62308099
_cell_angle_gamma   88.44161987
_symmetry_Int_Tables_number   1
_chemical_formula_structural   V3Ir
_chemical_formula_sum   'V6 Ir2'
_cell_volume   39.94533320
_cell_formula_units_Z   2
loop_
 _symmetry_equiv_pos_site_id
 _symmetry_equiv_pos_as_xyz
  1  'x, y, z'
loop_
 _atom_site_type_symbol
 _atom_site_label
 _atom_site_symmetry_multiplicity
 _atom_site_fract_x
 _atom_site_fract_y
 _atom_site_fract_z
 _atom_site_occupancy
  V  V0  1  0.00000000  0.75717986  0.73207355  1
  V  V1  1  0.00000000  0.01761270  0.62241518  1
  V  V2  1  0.23247311  0.53423816  0.00000000  1
  V  V3  1  0.45118985  0.66659993  0.33340007  1
  V  V4  1  0.45469016  0.24751133  0.75248867  1
  V  V5  1  0.85698855  0.68818998  0.00000000  1
  Ir  Ir6  1  0.00000000  0.00000000  0.00000000  1
  Ir  Ir7  1  0.47357291  0.99770960  0.52089942  1
