# generated using pymatgen
data_V
_symmetry_space_group_name_H-M   P-1
_cell_length_a   2.03639436
_cell_length_b   2.20920253
_cell_length_c   2.59288526
_cell_angle_alpha   97.84740448
_cell_angle_beta   101.57321167
_cell_angle_gamma   114.09142303
_symmetry_Int_Tables_number   2
_chemical_formula_structural   V
_chemical_formula_sum   V1
_cell_volume   10.11639626
_cell_formula_units_Z   1
loop_
 _symmetry_equiv_pos_site_id
 _symmetry_equiv_pos_as_xyz
  1  'x, y, z'
  2  '-x, -y, -z'
loop_
 _atom_site_type_symbol
 _atom_site_label
 _atom_site_symmetry_multiplicity
 _atom_site_fract_x
 _atom_site_fract_y
 _atom_site_fract_z
 _atom_site_occupancy
  V  V0  1  0.00000000  0.50000000  0.00000000  1
