# generated using pymatgen
data_VB2
_symmetry_space_group_name_H-M   P1
_cell_length_a   2.44857907
_cell_length_b   4.57037497
_cell_length_c   5.14765227
_cell_angle_alpha   83.57381509
_cell_angle_beta   86.15529569
_cell_angle_gamma   88.03238678
_symmetry_Int_Tables_number   1
_chemical_formula_structural   VB2
_chemical_formula_sum   'V1 B2'
_cell_volume   57.09528733
_cell_formula_units_Z   1
loop_
 _symmetry_equiv_pos_site_id
 _symmetry_equiv_pos_as_xyz
  1  'x, y, z'
loop_
 _atom_site_type_symbol
 _atom_site_label
 _atom_site_symmetry_multiplicity
 _atom_site_fract_x
 _atom_site_fract_y
 _atom_site_fract_z
 _atom_site_occupancy
  V  V0  1  0.00000000  0.00000000  0.00000000  1
  B  B1  1  0.22105193  0.42210084  0.28038007  1
  B  B2  1  0.32954431  0.46397209  0.51713952  1
