# generated using pymatgen
data_VCo3
_symmetry_space_group_name_H-M   P1
_cell_length_a   2.66980124
_cell_length_b   2.72126508
_cell_length_c   3.65825279
_cell_angle_alpha   68.62819068
_cell_angle_beta   80.22969000
_cell_angle_gamma   78.03962708
_symmetry_Int_Tables_number   1
_chemical_formula_structural   VCo3
_chemical_formula_sum   'V1 Co3'
_cell_volume   24.08340649
_cell_formula_units_Z   1
loop_
 _symmetry_equiv_pos_site_id
 _symmetry_equiv_pos_as_xyz
  1  'x, y, z'
loop_
 _atom_site_type_symbol
 _atom_site_label
 _atom_site_symmetry_multiplicity
 _atom_site_fract_x
 _atom_site_fract_y
 _atom_site_fract_z
 _atom_site_occupancy
  V  V0  1  0.00000000  0.00000000  0.00000000  1
  Co  Co1  1  -0.00000000  0.88082531  0.49496293  1
  Co  Co2  1  0.43794423  0.63020593  0.36979407  1
  Co  Co3  1  0.48948094  0.68415171  0.00000000  1
