# generated using pymatgen
data_VCu3
_symmetry_space_group_name_H-M   P1
_cell_length_a   1.81208158
_cell_length_b   2.80255222
_cell_length_c   3.05886650
_cell_angle_alpha   82.85332489
_cell_angle_beta   79.24438477
_cell_angle_gamma   82.85791016
_symmetry_Int_Tables_number   1
_chemical_formula_structural   VCu3
_chemical_formula_sum   'V1 Cu3'
_cell_volume   15.06115502
_cell_formula_units_Z   1
loop_
 _symmetry_equiv_pos_site_id
 _symmetry_equiv_pos_as_xyz
  1  'x, y, z'
loop_
 _atom_site_type_symbol
 _atom_site_label
 _atom_site_symmetry_multiplicity
 _atom_site_fract_x
 _atom_site_fract_y
 _atom_site_fract_z
 _atom_site_occupancy
  V  V0  1  0.00000000  0.00000000  0.00000000  1
  Cu  Cu1  1  -0.00000000  0.69079542  0.66439855  1
  Cu  Cu2  1  0.46074957  -0.00000000  0.63679367  1
  Cu  Cu3  1  0.66050643  0.44325131  0.00000000  1
