# generated using pymatgen
data_VH2Os
_symmetry_space_group_name_H-M   P1
_cell_length_a   1.86250722
_cell_length_b   2.22100999
_cell_length_c   3.07539828
_cell_angle_alpha   101.23544842
_cell_angle_beta   99.13674206
_cell_angle_gamma   100.42946349
_symmetry_Int_Tables_number   1
_chemical_formula_structural   VH2Os
_chemical_formula_sum   'V1 H2 Os1'
_cell_volume   12.02096344
_cell_formula_units_Z   1
loop_
 _symmetry_equiv_pos_site_id
 _symmetry_equiv_pos_as_xyz
  1  'x, y, z'
loop_
 _atom_site_type_symbol
 _atom_site_label
 _atom_site_symmetry_multiplicity
 _atom_site_fract_x
 _atom_site_fract_y
 _atom_site_fract_z
 _atom_site_occupancy
  V  V0  1  0.79089940  0.26148570  0.74384546  1
  H  H1  1  0.00000000  0.00000000  0.00000000  1
  Os  Os2  1  0.16167748  0.68451220  0.23060670  1
  H  H3  1  0.22383463  0.36966240  0.56286502  1
