# generated using pymatgen
data_VSiRu2
_symmetry_space_group_name_H-M   P1
_cell_length_a   3.10599899
_cell_length_b   3.18535523
_cell_length_c   3.82568494
_cell_angle_alpha   68.31080713
_cell_angle_beta   69.84601447
_cell_angle_gamma   66.06870693
_symmetry_Int_Tables_number   1
_chemical_formula_structural   VSiRu2
_chemical_formula_sum   'V1 Si1 Ru2'
_cell_volume   31.29151334
_cell_formula_units_Z   1
loop_
 _symmetry_equiv_pos_site_id
 _symmetry_equiv_pos_as_xyz
  1  'x, y, z'
loop_
 _atom_site_type_symbol
 _atom_site_label
 _atom_site_symmetry_multiplicity
 _atom_site_fract_x
 _atom_site_fract_y
 _atom_site_fract_z
 _atom_site_occupancy
  V  V0  1  0.27826998  0.68609738  0.63686562  1
  Si  Si1  1  0.00000000  0.00000000  0.00000000  1
  Ru  Ru2  1  0.18715239  0.16400623  0.26832813  1
  Ru  Ru3  1  0.69535232  0.79930621  0.75766432  1
