# generated using pymatgen
data_YInPt4
_symmetry_space_group_name_H-M   P1
_cell_length_a   4.61852646
_cell_length_b   5.06068756
_cell_length_c   5.79564163
_cell_angle_alpha   66.94161660
_cell_angle_beta   89.62650776
_cell_angle_gamma   66.53554628
_symmetry_Int_Tables_number   1
_chemical_formula_structural   YInPt4
_chemical_formula_sum   'Y1 In1 Pt4'
_cell_volume   112.52557870
_cell_formula_units_Z   1
loop_
 _symmetry_equiv_pos_site_id
 _symmetry_equiv_pos_as_xyz
  1  'x, y, z'
loop_
 _atom_site_type_symbol
 _atom_site_label
 _atom_site_symmetry_multiplicity
 _atom_site_fract_x
 _atom_site_fract_y
 _atom_site_fract_z
 _atom_site_occupancy
  Y  Y0  1  0.00000000  0.00000000  0.00000000  1
  In  In1  1  0.86355683  0.30132017  0.17270097  1
  Pt  Pt2  1  0.37543422  0.11133051  0.20576584  1
  Pt  Pt3  1  0.43048614  0.29712093  0.57734036  1
  Pt  Pt4  1  0.69090962  0.43595576  0.71204424  1
  Pt  Pt5  1  0.82035023  0.69426292  0.68651575  1
