# generated using pymatgen
data_YIr3
_symmetry_space_group_name_H-M   P1
_cell_length_a   2.78597164
_cell_length_b   2.84745622
_cell_length_c   3.36279655
_cell_angle_alpha   87.91763306
_cell_angle_beta   88.32848358
_cell_angle_gamma   82.43037415
_symmetry_Int_Tables_number   1
_chemical_formula_structural   YIr3
_chemical_formula_sum   'Y1 Ir3'
_cell_volume   26.41889294
_cell_formula_units_Z   1
loop_
 _symmetry_equiv_pos_site_id
 _symmetry_equiv_pos_as_xyz
  1  'x, y, z'
loop_
 _atom_site_type_symbol
 _atom_site_label
 _atom_site_symmetry_multiplicity
 _atom_site_fract_x
 _atom_site_fract_y
 _atom_site_fract_z
 _atom_site_occupancy
  Y  Y0  1  0.00000000  0.00000000  0.00000000  1
  Ir  Ir1  1  0.00000000  0.46464622  0.61409184  1
  Ir  Ir2  1  0.31320620  0.00000000  0.44613910  1
  Ir  Ir3  1  0.60105926  0.36875188  0.84714967  1
