# generated using pymatgen
data_YPPt
_symmetry_space_group_name_H-M   Cm
_cell_length_a   5.75544833
_cell_length_b   5.47013789
_cell_length_c   4.34923297
_cell_angle_alpha   90.00000000
_cell_angle_beta   114.69134098
_cell_angle_gamma   90.00000000
_symmetry_Int_Tables_number   8
_chemical_formula_structural   YPPt
_chemical_formula_sum   'Y2 P2 Pt2'
_cell_volume   124.40823490
_cell_formula_units_Z   2
loop_
 _symmetry_equiv_pos_site_id
 _symmetry_equiv_pos_as_xyz
  1  'x, y, z'
  2  'x, -y, z'
  3  'x+1/2, y+1/2, z'
  4  'x+1/2, -y+1/2, z'
loop_
 _atom_site_type_symbol
 _atom_site_label
 _atom_site_symmetry_multiplicity
 _atom_site_fract_x
 _atom_site_fract_y
 _atom_site_fract_z
 _atom_site_occupancy
  Y  Y0  2  0.05476628  0.00000000  0.02920261  1
  P  P1  2  0.12884000  0.50000000  0.30866042  1
  Pt  Pt2  2  0.47677721  0.00000000  0.72212773  1
