# generated using pymatgen
data_Zr2NiP
_symmetry_space_group_name_H-M   Pm
_cell_length_a   5.38412812
_cell_length_b   3.50012849
_cell_length_c   7.22076089
_cell_angle_alpha   90.00000000
_cell_angle_beta   100.50665309
_cell_angle_gamma   90.00000000
_symmetry_Int_Tables_number   6
_chemical_formula_structural   Zr2NiP
_chemical_formula_sum   'Zr4 Ni2 P2'
_cell_volume   133.79476170
_cell_formula_units_Z   2
loop_
 _symmetry_equiv_pos_site_id
 _symmetry_equiv_pos_as_xyz
  1  'x, y, z'
  2  'x, -y, z'
loop_
 _atom_site_type_symbol
 _atom_site_label
 _atom_site_symmetry_multiplicity
 _atom_site_fract_x
 _atom_site_fract_y
 _atom_site_fract_z
 _atom_site_occupancy
  Zr  Zr0  1  0.29096507  0.00000000  0.93621400  1
  Zr  Zr1  1  0.45552282  0.50000000  0.60667423  1
  Zr  Zr2  1  0.82505709  0.50000000  0.09381144  1
  Zr  Zr3  1  0.94977225  0.50000000  0.58286715  1
  Ni  Ni4  1  0.13431212  0.00000000  0.32442383  1
  Ni  Ni5  1  0.63061442  0.00000000  0.32451058  1
  P  P6  1  0.35299557  0.50000000  0.21523926  1
  P  P7  1  0.76565099  0.00000000  0.81578966  1
