# generated using pymatgen
data_Zr2Ni5Sb
_symmetry_space_group_name_H-M   P1
_cell_length_a   3.89389801
_cell_length_b   4.62034178
_cell_length_c   6.53231668
_cell_angle_alpha   100.12000275
_cell_angle_beta   100.39315033
_cell_angle_gamma   111.51502228
_symmetry_Int_Tables_number   1
_chemical_formula_structural   Zr2Ni5Sb
_chemical_formula_sum   'Zr2 Ni5 Sb1'
_cell_volume   103.71626226
_cell_formula_units_Z   1
loop_
 _symmetry_equiv_pos_site_id
 _symmetry_equiv_pos_as_xyz
  1  'x, y, z'
loop_
 _atom_site_type_symbol
 _atom_site_label
 _atom_site_symmetry_multiplicity
 _atom_site_fract_x
 _atom_site_fract_y
 _atom_site_fract_z
 _atom_site_occupancy
  Zr  Zr0  1  0.43166435  0.51201272  0.22993743  1
  Zr  Zr1  1  0.71261203  0.26520008  0.68593401  1
  Ni  Ni2  1  0.00000000  0.00000000  0.89756224  1
  Ni  Ni3  1  0.27125981  0.45867530  0.62757277  1
  Ni  Ni4  1  0.42487687  0.59683764  0.82835463  1
  Ni  Ni5  1  0.64538187  0.25758421  0.15846562  1
  Ni  Ni6  1  0.72440392  0.25477526  0.37045091  1
  Sb  Sb7  1  0.00000000  0.00000000  0.73891777  1
