# generated using pymatgen
data_Zr2SiTe2As
_symmetry_space_group_name_H-M   Pm
_cell_length_a   3.74961439
_cell_length_b   3.74825669
_cell_length_c   10.48870521
_cell_angle_alpha   90.00000000
_cell_angle_beta   91.56420194
_cell_angle_gamma   90.00000000
_symmetry_Int_Tables_number   6
_chemical_formula_structural   Zr2SiTe2As
_chemical_formula_sum   'Zr2 Si1 Te2 As1'
_cell_volume   147.35875625
_cell_formula_units_Z   1
loop_
 _symmetry_equiv_pos_site_id
 _symmetry_equiv_pos_as_xyz
  1  'x, y, z'
  2  'x, -y, z'
loop_
 _atom_site_type_symbol
 _atom_site_label
 _atom_site_symmetry_multiplicity
 _atom_site_fract_x
 _atom_site_fract_y
 _atom_site_fract_z
 _atom_site_occupancy
  Zr  Zr0  1  0.00469954  0.00000000  0.82036507  1
  Zr  Zr1  1  0.53804831  0.50000000  0.21797570  1
  Si  Si2  1  0.52031555  0.00000000  0.01915092  1
  Te  Te3  1  0.04782237  0.00000000  0.34997700  1
  Te  Te4  1  0.49478135  0.50000000  0.68859856  1
  As  As5  1  0.02212228  0.50000000  0.01918081  1
