# generated using pymatgen
data_Zr4C2S3
_symmetry_space_group_name_H-M   P1
_cell_length_a   2.79988147
_cell_length_b   3.11367583
_cell_length_c   12.65182457
_cell_angle_alpha   93.40953969
_cell_angle_beta   94.51181197
_cell_angle_gamma   102.23661211
_symmetry_Int_Tables_number   1
_chemical_formula_structural   Zr4C2S3
_chemical_formula_sum   'Zr4 C2 S3'
_cell_volume   107.12900049
_cell_formula_units_Z   1
loop_
 _symmetry_equiv_pos_site_id
 _symmetry_equiv_pos_as_xyz
  1  'x, y, z'
loop_
 _atom_site_type_symbol
 _atom_site_label
 _atom_site_symmetry_multiplicity
 _atom_site_fract_x
 _atom_site_fract_y
 _atom_site_fract_z
 _atom_site_occupancy
  Zr  Zr0  1  0.42798984  0.80188626  0.08926421  1
  Zr  Zr1  1  0.44818014  0.18937528  0.43624550  1
  Zr  Zr2  1  0.61309761  0.07692397  0.72151881  1
  Zr  Zr3  1  0.89568052  0.43658909  0.00000000  1
  C  C4  1  0.00000000  0.65719086  0.65719086  1
  C  C5  1  0.00000000  0.82044470  0.82044470  1
  S  S6  1  0.00000000  0.00000000  0.00000000  1
  S  S7  1  0.12685317  0.05600995  0.64648587  1
  S  S8  1  0.66325754  0.52351296  0.22631586  1
