# generated using pymatgen
data_Zr4Ni2P3
_symmetry_space_group_name_H-M   P1
_cell_length_a   2.87950563
_cell_length_b   6.55226135
_cell_length_c   7.21325874
_cell_angle_alpha   76.81406403
_cell_angle_beta   87.99827576
_cell_angle_gamma   79.13305664
_symmetry_Int_Tables_number   1
_chemical_formula_structural   Zr4Ni2P3
_chemical_formula_sum   'Zr4 Ni2 P3'
_cell_volume   130.12559011
_cell_formula_units_Z   1
loop_
 _symmetry_equiv_pos_site_id
 _symmetry_equiv_pos_as_xyz
  1  'x, y, z'
loop_
 _atom_site_type_symbol
 _atom_site_label
 _atom_site_symmetry_multiplicity
 _atom_site_fract_x
 _atom_site_fract_y
 _atom_site_fract_z
 _atom_site_occupancy
  Zr  Zr0  1  0.18994117  0.16115388  0.70869398  1
  Zr  Zr1  1  0.23195875  0.14032906  0.14992589  1
  Zr  Zr2  1  0.77148268  0.82197177  0.81958759  1
  Zr  Zr3  1  0.78048420  0.79403758  0.61557904  1
  Ni  Ni4  1  0.13159794  0.62068212  0.65776968  1
  Ni  Ni5  1  0.84473506  0.52676743  0.23658782  1
  P  P6  1  0.00000000  0.00000000  0.00000000  1
  P  P7  1  0.14088428  0.71353757  0.24839783  1
  P  P8  1  0.62495083  0.34230214  0.74514660  1
