# generated using pymatgen
data_ZrB2
_symmetry_space_group_name_H-M   P1
_cell_length_a   1.89633560
_cell_length_b   2.21864104
_cell_length_c   2.36340325
_cell_angle_alpha   99.49967235
_cell_angle_beta   112.08795126
_cell_angle_gamma   94.81320953
_symmetry_Int_Tables_number   1
_chemical_formula_structural   ZrB2
_chemical_formula_sum   'Zr1 B2'
_cell_volume   8.97072787
_cell_formula_units_Z   1
loop_
 _symmetry_equiv_pos_site_id
 _symmetry_equiv_pos_as_xyz
  1  'x, y, z'
loop_
 _atom_site_type_symbol
 _atom_site_label
 _atom_site_symmetry_multiplicity
 _atom_site_fract_x
 _atom_site_fract_y
 _atom_site_fract_z
 _atom_site_occupancy
  Zr  Zr0  1  0.00000000  0.00000000  0.00000000  1
  B  B1  1  0.45798624  0.74819240  0.59845039  1
  B  B2  1  0.53431150  0.33681482  0.41605389  1
