# generated using pymatgen
data_ZrIr3
_symmetry_space_group_name_H-M   P1
_cell_length_a   2.80582380
_cell_length_b   2.82538867
_cell_length_c   4.43393564
_cell_angle_alpha   84.01598358
_cell_angle_beta   83.33271027
_cell_angle_gamma   87.56415558
_symmetry_Int_Tables_number   1
_chemical_formula_structural   ZrIr3
_chemical_formula_sum   'Zr1 Ir3'
_cell_volume   34.70581653
_cell_formula_units_Z   1
loop_
 _symmetry_equiv_pos_site_id
 _symmetry_equiv_pos_as_xyz
  1  'x, y, z'
loop_
 _atom_site_type_symbol
 _atom_site_label
 _atom_site_symmetry_multiplicity
 _atom_site_fract_x
 _atom_site_fract_y
 _atom_site_fract_z
 _atom_site_occupancy
  Zr  Zr0  1  0.00000000  0.00000000  0.00000000  1
  Ir  Ir1  1  0.00000000  0.52139172  0.75489408  1
  Ir  Ir2  1  0.44554713  0.33467609  0.00000000  1
  Ir  Ir3  1  0.49559841  0.00000000  0.41394681  1
