# generated using pymatgen
data_ZrSO
_symmetry_space_group_name_H-M   P1
_cell_length_a   6.05668073
_cell_length_b   6.26742441
_cell_length_c   6.90611325
_cell_angle_alpha   89.47674533
_cell_angle_beta   88.35957207
_cell_angle_gamma   67.26069795
_symmetry_Int_Tables_number   1
_chemical_formula_structural   ZrSO
_chemical_formula_sum   'Zr4 S4 O4'
_cell_volume   241.67853022
_cell_formula_units_Z   4
loop_
 _symmetry_equiv_pos_site_id
 _symmetry_equiv_pos_as_xyz
  1  'x, y, z'
loop_
 _atom_site_type_symbol
 _atom_site_label
 _atom_site_symmetry_multiplicity
 _atom_site_fract_x
 _atom_site_fract_y
 _atom_site_fract_z
 _atom_site_occupancy
  Zr  Zr0  1  0.19901483  0.98476376  0.60160528  1
  Zr  Zr1  1  0.30599319  0.46680591  0.79220997  1
  Zr  Zr2  1  0.49077618  0.22757869  0.31346324  1
  Zr  Zr3  1  0.79529080  0.50202511  0.55673956  1
  S  S4  1  0.52767732  0.81974624  0.31230869  1
  S  S5  1  0.91919709  0.80940463  0.72001537  1
  S  S6  1  0.92247269  0.16657722  0.29652718  1
  S  S7  1  0.99746464  0.27219670  0.86454792  1
  O  O8  1  0.19374763  0.33573140  0.51303721  1
  O  O9  1  0.40027345  0.38091112  0.06532831  1
  O  O10  1  0.45034385  0.72086022  0.73399302  1
  O  O11  1  0.57998110  0.32184799  0.59362532  1
