# generated using pymatgen
data_AgAuF4
_symmetry_space_group_name_H-M   P2/c
_cell_length_a   7.24573595
_cell_length_b   3.82003593
_cell_length_c   8.13926198
_cell_angle_alpha   90.00000000
_cell_angle_beta   124.06336283
_cell_angle_gamma   90.00000000
_symmetry_Int_Tables_number   13
_chemical_formula_structural   AgAuF4
_chemical_formula_sum   'Ag2 Au2 F8'
_cell_volume   186.63145909
_cell_formula_units_Z   2
loop_
 _symmetry_equiv_pos_site_id
 _symmetry_equiv_pos_as_xyz
  1  'x, y, z'
  2  '-x, -y, -z'
  3  '-x, y, -z+1/2'
  4  'x, -y, z+1/2'
loop_
 _atom_site_type_symbol
 _atom_site_label
 _atom_site_symmetry_multiplicity
 _atom_site_fract_x
 _atom_site_fract_y
 _atom_site_fract_z
 _atom_site_occupancy
  Ag  Ag0  2  0.00000000  0.48631695  0.25000000  1
  Au  Au1  2  0.50000000  0.00000000  0.00000000  1
  F  F2  4  0.20878328  0.02826158  0.96717943  1
  F  F3  4  0.34881061  0.37639916  0.30276936  1
