# generated using pymatgen
data_AgSbI4
_symmetry_space_group_name_H-M   P2/c
_cell_length_a   10.41647437
_cell_length_b   4.34312878
_cell_length_c   14.65100535
_cell_angle_alpha   90.00000000
_cell_angle_beta   131.73428394
_cell_angle_gamma   90.00000000
_symmetry_Int_Tables_number   13
_chemical_formula_structural   AgSbI4
_chemical_formula_sum   'Ag2 Sb2 I8'
_cell_volume   494.61741747
_cell_formula_units_Z   2
loop_
 _symmetry_equiv_pos_site_id
 _symmetry_equiv_pos_as_xyz
  1  'x, y, z'
  2  '-x, -y, -z'
  3  '-x, y, -z+1/2'
  4  'x, -y, z+1/2'
loop_
 _atom_site_type_symbol
 _atom_site_label
 _atom_site_symmetry_multiplicity
 _atom_site_fract_x
 _atom_site_fract_y
 _atom_site_fract_z
 _atom_site_occupancy
  Ag  Ag0  2  0.00000000  0.49079494  0.25000000  1
  Sb  Sb1  2  0.50000000  0.00000000  0.00000000  1
  I  I2  4  0.17802263  0.00852065  0.72854496  1
  I  I3  4  0.33982643  0.49910294  0.04633992  1
