# generated using pymatgen
data_AlAgSe2
_symmetry_space_group_name_H-M   P-3m1
_cell_length_a   3.80077930
_cell_length_b   3.80077930
_cell_length_c   20.30370009
_cell_angle_alpha   90.00000000
_cell_angle_beta   90.00000000
_cell_angle_gamma   120.00000000
_symmetry_Int_Tables_number   164
_chemical_formula_structural   AlAgSe2
_chemical_formula_sum   'Al3 Ag3 Se6'
_cell_volume   254.01018226
_cell_formula_units_Z   3
loop_
 _symmetry_equiv_pos_site_id
 _symmetry_equiv_pos_as_xyz
  1  'x, y, z'
  2  '-x, -y, -z'
  3  '-y, x-y, z'
  4  'y, -x+y, -z'
  5  '-x+y, -x, z'
  6  'x-y, x, -z'
  7  'y, x, -z'
  8  '-y, -x, z'
  9  'x-y, -y, -z'
  10  '-x+y, y, z'
  11  '-x, -x+y, -z'
  12  'x, x-y, z'
loop_
 _atom_site_type_symbol
 _atom_site_label
 _atom_site_symmetry_multiplicity
 _atom_site_fract_x
 _atom_site_fract_y
 _atom_site_fract_z
 _atom_site_occupancy
  Al  Al0  2  0.33333333  0.66666667  0.16398170  1
  Al  Al1  1  0.00000000  0.00000000  0.00000000  1
  Ag  Ag2  2  0.33333333  0.66666667  0.65962622  1
  Ag  Ag3  1  0.00000000  0.00000000  0.50000000  1
  Se  Se4  2  0.00000000  0.00000000  0.22561232  1
  Se  Se5  2  0.33333333  0.66666667  0.41459342  1
  Se  Se6  2  0.33333333  0.66666667  0.92565836  1
