# generated using pymatgen
data_AlHF4
_symmetry_space_group_name_H-M   P2/c
_cell_length_a   6.60468225
_cell_length_b   4.94198040
_cell_length_c   10.89464410
_cell_angle_alpha   90.00000000
_cell_angle_beta   123.25602998
_cell_angle_gamma   90.00000000
_symmetry_Int_Tables_number   13
_chemical_formula_structural   AlHF4
_chemical_formula_sum   'Al4 H4 F16'
_cell_volume   297.36574036
_cell_formula_units_Z   4
loop_
 _symmetry_equiv_pos_site_id
 _symmetry_equiv_pos_as_xyz
  1  'x, y, z'
  2  '-x, -y, -z'
  3  '-x, y, -z+1/2'
  4  'x, -y, z+1/2'
loop_
 _atom_site_type_symbol
 _atom_site_label
 _atom_site_symmetry_multiplicity
 _atom_site_fract_x
 _atom_site_fract_y
 _atom_site_fract_z
 _atom_site_occupancy
  Al  Al0  4  0.11168840  0.25028771  0.00079390  1
  H  H1  2  0.00000000  0.11761522  0.75000000  1
  H  H2  2  0.50000000  0.37634224  0.25000000  1
  F  F3  4  0.01042583  0.43347776  0.10609391  1
  F  F4  4  0.17022105  0.12542897  0.86772669  1
  F  F5  4  0.18566293  0.06797777  0.60316479  1
  F  F6  4  0.41673644  0.37192666  0.12532528  1
