# generated using pymatgen
data_AsBrCl4
_symmetry_space_group_name_H-M   P-1
_cell_length_a   8.24603440
_cell_length_b   8.56427210
_cell_length_c   10.22028687
_cell_angle_alpha   91.96673653
_cell_angle_beta   94.60617681
_cell_angle_gamma   95.21346589
_symmetry_Int_Tables_number   2
_chemical_formula_structural   AsBrCl4
_chemical_formula_sum   'As2 Br2 Cl8'
_cell_volume   715.83241100
_cell_formula_units_Z   2
loop_
 _symmetry_equiv_pos_site_id
 _symmetry_equiv_pos_as_xyz
  1  'x, y, z'
  2  '-x, -y, -z'
loop_
 _atom_site_type_symbol
 _atom_site_label
 _atom_site_symmetry_multiplicity
 _atom_site_fract_x
 _atom_site_fract_y
 _atom_site_fract_z
 _atom_site_occupancy
  As  As0  2  0.26106527  0.01844589  0.31100987  1
  Br  Br1  2  0.20564048  0.45218920  0.65400124  1
  Cl  Cl2  2  0.04534593  0.92946242  0.18092811  1
  Cl  Cl3  2  0.22433200  0.27227108  0.49943281  1
  Cl  Cl4  2  0.31559916  0.80453864  0.41093822  1
  Cl  Cl5  2  0.44945163  0.03195177  0.17046130  1
