# generated using pymatgen
data_AsI4F
_symmetry_space_group_name_H-M   P2/c
_cell_length_a   7.84443301
_cell_length_b   7.76421681
_cell_length_c   9.83296531
_cell_angle_alpha   90.00000000
_cell_angle_beta   113.11238551
_cell_angle_gamma   90.00000000
_symmetry_Int_Tables_number   13
_chemical_formula_structural   AsI4F
_chemical_formula_sum   'As2 I8 F2'
_cell_volume   550.81685335
_cell_formula_units_Z   2
loop_
 _symmetry_equiv_pos_site_id
 _symmetry_equiv_pos_as_xyz
  1  'x, y, z'
  2  '-x, -y, -z'
  3  '-x, y, -z+1/2'
  4  'x, -y, z+1/2'
loop_
 _atom_site_type_symbol
 _atom_site_label
 _atom_site_symmetry_multiplicity
 _atom_site_fract_x
 _atom_site_fract_y
 _atom_site_fract_z
 _atom_site_occupancy
  As  As0  2  0.00000000  0.27421602  0.75000000  1
  I  I1  4  0.21764434  0.07196069  0.95038469  1
  I  I2  4  0.24565758  0.46896619  0.71231824  1
  F  F3  2  0.50000000  0.35490928  0.25000000  1
