# generated using pymatgen
data_AsWS4
_symmetry_space_group_name_H-M   P2/c
_cell_length_a   5.58604947
_cell_length_b   7.17685110
_cell_length_c   6.16800777
_cell_angle_alpha   90.00000000
_cell_angle_beta   91.16741001
_cell_angle_gamma   90.00000000
_symmetry_Int_Tables_number   13
_chemical_formula_structural   AsWS4
_chemical_formula_sum   'As2 W2 S8'
_cell_volume   247.22561777
_cell_formula_units_Z   2
loop_
 _symmetry_equiv_pos_site_id
 _symmetry_equiv_pos_as_xyz
  1  'x, y, z'
  2  '-x, -y, -z'
  3  '-x, y, -z+1/2'
  4  'x, -y, z+1/2'
loop_
 _atom_site_type_symbol
 _atom_site_label
 _atom_site_symmetry_multiplicity
 _atom_site_fract_x
 _atom_site_fract_y
 _atom_site_fract_z
 _atom_site_occupancy
  As  As0  2  0.50000000  0.32177120  0.25000000  1
  W  W1  2  0.00000000  0.16756777  0.75000000  1
  S  S2  4  0.22653435  0.09622635  0.43694606  1
  S  S3  4  0.25518084  0.37831973  0.89951861  1
