# generated using pymatgen
data_BaGeBr4
_symmetry_space_group_name_H-M   P2/c
_cell_length_a   7.23164729
_cell_length_b   7.64137254
_cell_length_c   7.84666664
_cell_angle_alpha   90.00000000
_cell_angle_beta   101.39594098
_cell_angle_gamma   90.00000000
_symmetry_Int_Tables_number   13
_chemical_formula_structural   BaGeBr4
_chemical_formula_sum   'Ba2 Ge2 Br8'
_cell_volume   425.05609347
_cell_formula_units_Z   2
loop_
 _symmetry_equiv_pos_site_id
 _symmetry_equiv_pos_as_xyz
  1  'x, y, z'
  2  '-x, -y, -z'
  3  '-x, y, -z+1/2'
  4  'x, -y, z+1/2'
loop_
 _atom_site_type_symbol
 _atom_site_label
 _atom_site_symmetry_multiplicity
 _atom_site_fract_x
 _atom_site_fract_y
 _atom_site_fract_z
 _atom_site_occupancy
  Ba  Ba0  2  0.50000000  0.24804824  0.25000000  1
  Ge  Ge1  2  0.00000000  0.32737751  0.75000000  1
  Br  Br2  4  0.23890482  0.08128819  0.89673459  1
  Br  Br3  4  0.24789169  0.42471073  0.51791803  1
