# generated using pymatgen
data_BaPbCl4
_symmetry_space_group_name_H-M   P2/c
_cell_length_a   7.25964090
_cell_length_b   7.42454893
_cell_length_c   7.47687211
_cell_angle_alpha   90.00000000
_cell_angle_beta   97.66915981
_cell_angle_gamma   90.00000000
_symmetry_Int_Tables_number   13
_chemical_formula_structural   BaPbCl4
_chemical_formula_sum   'Ba2 Pb2 Cl8'
_cell_volume   399.39534454
_cell_formula_units_Z   2
loop_
 _symmetry_equiv_pos_site_id
 _symmetry_equiv_pos_as_xyz
  1  'x, y, z'
  2  '-x, -y, -z'
  3  '-x, y, -z+1/2'
  4  'x, -y, z+1/2'
loop_
 _atom_site_type_symbol
 _atom_site_label
 _atom_site_symmetry_multiplicity
 _atom_site_fract_x
 _atom_site_fract_y
 _atom_site_fract_z
 _atom_site_occupancy
  Ba  Ba0  2  0.50000000  0.26222358  0.75000000  1
  Pb  Pb1  2  0.00000000  0.19808905  0.25000000  1
  Cl  Cl2  4  0.25157371  0.04439867  0.01099163  1
  Cl  Cl3  4  0.25218972  0.45260603  0.42444438  1
