# generated using pymatgen
data_BaSrCl4
_symmetry_space_group_name_H-M   P2_1/c
_cell_length_a   7.95535448
_cell_length_b   7.06032111
_cell_length_c   16.75445740
_cell_angle_alpha   90.00000000
_cell_angle_beta   109.09628268
_cell_angle_gamma   90.00000000
_symmetry_Int_Tables_number   14
_chemical_formula_structural   BaSrCl4
_chemical_formula_sum   'Ba4 Sr4 Cl16'
_cell_volume   889.26754592
_cell_formula_units_Z   4
loop_
 _symmetry_equiv_pos_site_id
 _symmetry_equiv_pos_as_xyz
  1  'x, y, z'
  2  '-x, -y, -z'
  3  '-x, y+1/2, -z+1/2'
  4  'x, -y+1/2, z+1/2'
loop_
 _atom_site_type_symbol
 _atom_site_label
 _atom_site_symmetry_multiplicity
 _atom_site_fract_x
 _atom_site_fract_y
 _atom_site_fract_z
 _atom_site_occupancy
  Ba  Ba0  4  0.28551312  0.05485357  0.84234535  1
  Sr  Sr1  4  0.18535170  0.18956289  0.09308097  1
  Cl  Cl2  4  0.02839883  0.68030211  0.58362703  1
  Cl  Cl3  4  0.03666548  0.68816222  0.81655351  1
  Cl  Cl4  4  0.46141984  0.14627799  0.25084112  1
  Cl  Cl5  4  0.46403781  0.23141064  0.02394381  1
