# generated using pymatgen
data_BaTiCl4
_symmetry_space_group_name_H-M   P2/c
_cell_length_a   6.77501625
_cell_length_b   7.25866946
_cell_length_c   7.06800805
_cell_angle_alpha   90.00000000
_cell_angle_beta   98.91403765
_cell_angle_gamma   90.00000000
_symmetry_Int_Tables_number   13
_chemical_formula_structural   BaTiCl4
_chemical_formula_sum   'Ba2 Ti2 Cl8'
_cell_volume   343.38950954
_cell_formula_units_Z   2
loop_
 _symmetry_equiv_pos_site_id
 _symmetry_equiv_pos_as_xyz
  1  'x, y, z'
  2  '-x, -y, -z'
  3  '-x, y, -z+1/2'
  4  'x, -y, z+1/2'
loop_
 _atom_site_type_symbol
 _atom_site_label
 _atom_site_symmetry_multiplicity
 _atom_site_fract_x
 _atom_site_fract_y
 _atom_site_fract_z
 _atom_site_occupancy
  Ba  Ba0  2  0.50000000  0.27062998  0.25000000  1
  Ti  Ti1  2  0.00000000  0.15909783  0.75000000  1
  Cl  Cl2  4  0.22756590  0.05772481  0.50798751  1
  Cl  Cl3  4  0.23683532  0.40784651  0.88478108  1
