# generated using pymatgen
data_BeCdBr4
_symmetry_space_group_name_H-M   P2/c
_cell_length_a   5.62364979
_cell_length_b   11.88006276
_cell_length_c   5.60624552
_cell_angle_alpha   90.00000000
_cell_angle_beta   90.21352588
_cell_angle_gamma   90.00000000
_symmetry_Int_Tables_number   13
_chemical_formula_structural   BeCdBr4
_chemical_formula_sum   'Be2 Cd2 Br8'
_cell_volume   374.54680775
_cell_formula_units_Z   2
loop_
 _symmetry_equiv_pos_site_id
 _symmetry_equiv_pos_as_xyz
  1  'x, y, z'
  2  '-x, -y, -z'
  3  '-x, y, -z+1/2'
  4  'x, -y, z+1/2'
loop_
 _atom_site_type_symbol
 _atom_site_label
 _atom_site_symmetry_multiplicity
 _atom_site_fract_x
 _atom_site_fract_y
 _atom_site_fract_z
 _atom_site_occupancy
  Be  Be0  2  0.50000000  0.25198794  0.75000000  1
  Cd  Cd1  2  0.00000000  0.25247145  0.25000000  1
  Br  Br2  4  0.28306317  0.13399305  0.53569751  1
  Br  Br3  4  0.28542497  0.36962627  0.96544614  1
