# generated using pymatgen
data_BeCuO2
_symmetry_space_group_name_H-M   C2/c
_cell_length_a   9.78903055
_cell_length_b   3.89596562
_cell_length_c   4.91598439
_cell_angle_alpha   90.00000000
_cell_angle_beta   118.83522354
_cell_angle_gamma   90.00000000
_symmetry_Int_Tables_number   15
_chemical_formula_structural   BeCuO2
_chemical_formula_sum   'Be4 Cu4 O8'
_cell_volume   164.23833413
_cell_formula_units_Z   4
loop_
 _symmetry_equiv_pos_site_id
 _symmetry_equiv_pos_as_xyz
  1  'x, y, z'
  2  '-x+1/2, -y+1/2, -z'
  3  '-x, y, -z+1/2'
  4  'x+1/2, -y+1/2, z+1/2'
  5  '-x+1/2, -y+1/2, -2x+z+1/2'
  6  'x, y, 2x-z+1/2'
  7  'x+1/2, -y+1/2, 2x-z'
  8  '-x, y, -2x+z'
  9  'x+1/2, y+1/2, z'
  10  '-x, -y, -z'
  11  '-x+1/2, y+1/2, -z+1/2'
  12  'x, -y, z+1/2'
  13  '-x, -y, -2x+z+1/2'
  14  'x+1/2, y+1/2, 2x-z+1/2'
  15  'x, -y, 2x-z'
  16  '-x+1/2, y+1/2, -2x+z'
loop_
 _atom_site_type_symbol
 _atom_site_label
 _atom_site_symmetry_multiplicity
 _atom_site_fract_x
 _atom_site_fract_y
 _atom_site_fract_z
 _atom_site_occupancy
  Be  Be0  4  0.25000000  0.25000000  0.50000000  1
  Cu  Cu1  4  0.00000000  0.13060814  0.75000000  1
  O  O2  8  0.16447612  0.00481692  0.15896091  1
