# generated using pymatgen
data_BeHgS2
_symmetry_space_group_name_H-M   C2/c
_cell_length_a   8.04687313
_cell_length_b   16.24182735
_cell_length_c   5.30566452
_cell_angle_alpha   90.00000000
_cell_angle_beta   111.41338921
_cell_angle_gamma   90.00000000
_symmetry_Int_Tables_number   15
_chemical_formula_structural   BeHgS2
_chemical_formula_sum   'Be8 Hg8 S16'
_cell_volume   645.56170477
_cell_formula_units_Z   8
loop_
 _symmetry_equiv_pos_site_id
 _symmetry_equiv_pos_as_xyz
  1  'x, y, z'
  2  '-x, -y, -z'
  3  '-x, y, -z+1/2'
  4  'x, -y, z+1/2'
  5  'x+1/2, y+1/2, z'
  6  '-x+1/2, -y+1/2, -z'
  7  '-x+1/2, y+1/2, -z+1/2'
  8  'x+1/2, -y+1/2, z+1/2'
loop_
 _atom_site_type_symbol
 _atom_site_label
 _atom_site_symmetry_multiplicity
 _atom_site_fract_x
 _atom_site_fract_y
 _atom_site_fract_z
 _atom_site_occupancy
  Be  Be0  4  0.00000000  0.01038957  0.75000000  1
  Be  Be1  4  0.00000000  0.15015618  0.25000000  1
  Hg  Hg2  4  0.00000000  0.33784253  0.75000000  1
  Hg  Hg3  4  0.00000000  0.43223453  0.25000000  1
  S  S4  8  0.15154792  0.07354381  0.10374594  1
  S  S5  8  0.17289912  0.21845253  0.58480152  1
