# generated using pymatgen
data_BeRuSe4
_symmetry_space_group_name_H-M   P2_1/c
_cell_length_a   5.98761864
_cell_length_b   5.99169746
_cell_length_c   5.99011241
_cell_angle_alpha   90.00000000
_cell_angle_beta   90.39342042
_cell_angle_gamma   90.00000000
_symmetry_Int_Tables_number   14
_chemical_formula_structural   BeRuSe4
_chemical_formula_sum   'Be2 Ru2 Se8'
_cell_volume   214.89620320
_cell_formula_units_Z   2
loop_
 _symmetry_equiv_pos_site_id
 _symmetry_equiv_pos_as_xyz
  1  'x, y, z'
  2  '-x, -y, -z'
  3  '-x, y+1/2, -z+1/2'
  4  'x, -y+1/2, z+1/2'
loop_
 _atom_site_type_symbol
 _atom_site_label
 _atom_site_symmetry_multiplicity
 _atom_site_fract_x
 _atom_site_fract_y
 _atom_site_fract_z
 _atom_site_occupancy
  Be  Be0  2  0.50000000  0.00000000  0.50000000  1
  Ru  Ru1  2  0.00000000  0.00000000  0.00000000  1
  Se  Se2  4  0.11723321  0.12073288  0.62183030  1
  Se  Se3  4  0.38201524  0.61813409  0.61635769  1
