# generated using pymatgen
data_CaCoI4
_symmetry_space_group_name_H-M   P2/c
_cell_length_a   6.88892903
_cell_length_b   8.41073283
_cell_length_c   7.42942827
_cell_angle_alpha   90.00000000
_cell_angle_beta   91.97841557
_cell_angle_gamma   90.00000000
_symmetry_Int_Tables_number   13
_chemical_formula_structural   CaCoI4
_chemical_formula_sum   'Ca2 Co2 I8'
_cell_volume   430.21146906
_cell_formula_units_Z   2
loop_
 _symmetry_equiv_pos_site_id
 _symmetry_equiv_pos_as_xyz
  1  'x, y, z'
  2  '-x, -y, -z'
  3  '-x, y, -z+1/2'
  4  'x, -y, z+1/2'
loop_
 _atom_site_type_symbol
 _atom_site_label
 _atom_site_symmetry_multiplicity
 _atom_site_fract_x
 _atom_site_fract_y
 _atom_site_fract_z
 _atom_site_occupancy
  Ca  Ca0  2  0.00000000  0.14745320  0.25000000  1
  Co  Co1  2  0.50000000  0.37837663  0.75000000  1
  I  I2  4  0.25988870  0.13092383  0.59769043  1
  I  I3  4  0.28160776  0.39396784  0.06212089  1
