# generated using pymatgen
data_CaGeBr4
_symmetry_space_group_name_H-M   P2/c
_cell_length_a   6.64413739
_cell_length_b   8.09184833
_cell_length_c   7.23037821
_cell_angle_alpha   90.00000000
_cell_angle_beta   90.31448251
_cell_angle_gamma   90.00000000
_symmetry_Int_Tables_number   13
_chemical_formula_structural   CaGeBr4
_chemical_formula_sum   'Ca2 Ge2 Br8'
_cell_volume   388.72351376
_cell_formula_units_Z   2
loop_
 _symmetry_equiv_pos_site_id
 _symmetry_equiv_pos_as_xyz
  1  'x, y, z'
  2  '-x, -y, -z'
  3  '-x, y, -z+1/2'
  4  'x, -y, z+1/2'
loop_
 _atom_site_type_symbol
 _atom_site_label
 _atom_site_symmetry_multiplicity
 _atom_site_fract_x
 _atom_site_fract_y
 _atom_site_fract_z
 _atom_site_occupancy
  Ca  Ca0  2  0.50000000  0.14491658  0.75000000  1
  Ge  Ge1  2  0.00000000  0.36294252  0.25000000  1
  Br  Br2  4  0.23648448  0.39798014  0.92399433  1
  Br  Br3  4  0.25590415  0.11307607  0.42029714  1
