# generated using pymatgen
data_CaPtF4
_symmetry_space_group_name_H-M   C2/m
_cell_length_a   5.56177324
_cell_length_b   6.03459524
_cell_length_c   5.20754795
_cell_angle_alpha   90.00000000
_cell_angle_beta   96.35114205
_cell_angle_gamma   90.00000000
_symmetry_Int_Tables_number   12
_chemical_formula_structural   CaPtF4
_chemical_formula_sum   'Ca2 Pt2 F8'
_cell_volume   173.70849378
_cell_formula_units_Z   2
loop_
 _symmetry_equiv_pos_site_id
 _symmetry_equiv_pos_as_xyz
  1  'x, y, z'
  2  '-x, -y, -z'
  3  '-x, y, -z'
  4  'x, -y, z'
  5  'x+1/2, y+1/2, z'
  6  '-x+1/2, -y+1/2, -z'
  7  '-x+1/2, y+1/2, -z'
  8  'x+1/2, -y+1/2, z'
loop_
 _atom_site_type_symbol
 _atom_site_label
 _atom_site_symmetry_multiplicity
 _atom_site_fract_x
 _atom_site_fract_y
 _atom_site_fract_z
 _atom_site_occupancy
  Ca  Ca0  2  0.00000000  0.00000000  0.00000000  1
  Pt  Pt1  2  0.00000000  0.50000000  0.50000000  1
  F  F2  8  0.15000978  0.28676511  0.76594685  1
