# generated using pymatgen
data_CaReCl4
_symmetry_space_group_name_H-M   P2/c
_cell_length_a   6.17891935
_cell_length_b   8.93461603
_cell_length_c   6.70857330
_cell_angle_alpha   90.00000000
_cell_angle_beta   95.77639859
_cell_angle_gamma   90.00000000
_symmetry_Int_Tables_number   13
_chemical_formula_structural   CaReCl4
_chemical_formula_sum   'Ca2 Re2 Cl8'
_cell_volume   368.47475052
_cell_formula_units_Z   2
loop_
 _symmetry_equiv_pos_site_id
 _symmetry_equiv_pos_as_xyz
  1  'x, y, z'
  2  '-x, -y, -z'
  3  '-x, y, -z+1/2'
  4  'x, -y, z+1/2'
loop_
 _atom_site_type_symbol
 _atom_site_label
 _atom_site_symmetry_multiplicity
 _atom_site_fract_x
 _atom_site_fract_y
 _atom_site_fract_z
 _atom_site_occupancy
  Ca  Ca0  2  0.00000000  0.12887752  0.75000000  1
  Re  Re1  2  0.50000000  0.29757807  0.25000000  1
  Cl  Cl2  4  0.24638255  0.10050203  0.43617479  1
  Cl  Cl3  4  0.25696353  0.34625908  0.96350439  1
