# generated using pymatgen
data_CaTmCl4
_symmetry_space_group_name_H-M   P2/c
_cell_length_a   6.70194126
_cell_length_b   6.80491999
_cell_length_c   6.81082798
_cell_angle_alpha   90.00000000
_cell_angle_beta   101.75186579
_cell_angle_gamma   90.00000000
_symmetry_Int_Tables_number   13
_chemical_formula_structural   CaTmCl4
_chemical_formula_sum   'Ca2 Tm2 Cl8'
_cell_volume   304.10493893
_cell_formula_units_Z   2
loop_
 _symmetry_equiv_pos_site_id
 _symmetry_equiv_pos_as_xyz
  1  'x, y, z'
  2  '-x, -y, -z'
  3  '-x, y, -z+1/2'
  4  'x, -y, z+1/2'
loop_
 _atom_site_type_symbol
 _atom_site_label
 _atom_site_symmetry_multiplicity
 _atom_site_fract_x
 _atom_site_fract_y
 _atom_site_fract_z
 _atom_site_occupancy
  Ca  Ca0  2  0.50000000  0.17046074  0.25000000  1
  Tm  Tm1  2  0.00000000  0.26472617  0.75000000  1
  Cl  Cl2  4  0.22109322  0.05675964  0.47881017  1
  Cl  Cl3  4  0.22137877  0.44321264  0.09275531  1
