# generated using pymatgen
data_Cd2IN
_symmetry_space_group_name_H-M   C2/c
_cell_length_a   18.23991263
_cell_length_b   6.92653202
_cell_length_c   6.68351380
_cell_angle_alpha   90.00000000
_cell_angle_beta   101.57345085
_cell_angle_gamma   90.00000000
_symmetry_Int_Tables_number   15
_chemical_formula_structural   Cd2IN
_chemical_formula_sum   'Cd16 I8 N8'
_cell_volume   827.22283157
_cell_formula_units_Z   8
loop_
 _symmetry_equiv_pos_site_id
 _symmetry_equiv_pos_as_xyz
  1  'x, y, z'
  2  '-x, -y, -z'
  3  '-x, y, -z+1/2'
  4  'x, -y, z+1/2'
  5  'x+1/2, y+1/2, z'
  6  '-x+1/2, -y+1/2, -z'
  7  '-x+1/2, y+1/2, -z+1/2'
  8  'x+1/2, -y+1/2, z+1/2'
loop_
 _atom_site_type_symbol
 _atom_site_label
 _atom_site_symmetry_multiplicity
 _atom_site_fract_x
 _atom_site_fract_y
 _atom_site_fract_z
 _atom_site_occupancy
  Cd  Cd0  8  0.08039253  0.24047430  0.30098016  1
  Cd  Cd1  8  0.23645402  0.08143850  0.68094111  1
  I  I2  8  0.10555855  0.31698470  0.81971931  1
  N  N3  8  0.19787614  0.15283047  0.34546600  1
