# generated using pymatgen
data_CdPbF4
_symmetry_space_group_name_H-M   P2/c
_cell_length_a   5.77503687
_cell_length_b   5.94968585
_cell_length_c   5.93239000
_cell_angle_alpha   90.00000000
_cell_angle_beta   96.24874587
_cell_angle_gamma   90.00000000
_symmetry_Int_Tables_number   13
_chemical_formula_structural   CdPbF4
_chemical_formula_sum   'Cd2 Pb2 F8'
_cell_volume   202.62383492
_cell_formula_units_Z   2
loop_
 _symmetry_equiv_pos_site_id
 _symmetry_equiv_pos_as_xyz
  1  'x, y, z'
  2  '-x, -y, -z'
  3  '-x, y, -z+1/2'
  4  'x, -y, z+1/2'
loop_
 _atom_site_type_symbol
 _atom_site_label
 _atom_site_symmetry_multiplicity
 _atom_site_fract_x
 _atom_site_fract_y
 _atom_site_fract_z
 _atom_site_occupancy
  Cd  Cd0  2  0.50000000  0.19343531  0.25000000  1
  Pb  Pb1  2  0.00000000  0.26877131  0.75000000  1
  F  F2  4  0.24128566  0.43831616  0.08757793  1
  F  F3  4  0.26550793  0.04462287  0.50098313  1
