# generated using pymatgen
data_CdRuBr4
_symmetry_space_group_name_H-M   P2/c
_cell_length_a   6.37001233
_cell_length_b   7.68122303
_cell_length_c   6.64413873
_cell_angle_alpha   90.00000000
_cell_angle_beta   97.52315880
_cell_angle_gamma   90.00000000
_symmetry_Int_Tables_number   13
_chemical_formula_structural   CdRuBr4
_chemical_formula_sum   'Cd2 Ru2 Br8'
_cell_volume   322.29588443
_cell_formula_units_Z   2
loop_
 _symmetry_equiv_pos_site_id
 _symmetry_equiv_pos_as_xyz
  1  'x, y, z'
  2  '-x, -y, -z'
  3  '-x, y, -z+1/2'
  4  'x, -y, z+1/2'
loop_
 _atom_site_type_symbol
 _atom_site_label
 _atom_site_symmetry_multiplicity
 _atom_site_fract_x
 _atom_site_fract_y
 _atom_site_fract_z
 _atom_site_occupancy
  Cd  Cd0  2  0.00000000  0.30922615  0.75000000  1
  Ru  Ru1  2  0.50000000  0.12958768  0.25000000  1
  Br  Br2  4  0.26702832  0.37347481  0.08222022  1
  Br  Br3  4  0.27862709  0.09363986  0.53982990  1
