# generated using pymatgen
data_CePtN2
_symmetry_space_group_name_H-M   P2/m
_cell_length_a   5.91332782
_cell_length_b   3.29993172
_cell_length_c   6.01772225
_cell_angle_alpha   90.00000000
_cell_angle_beta   90.48199142
_cell_angle_gamma   90.00000000
_symmetry_Int_Tables_number   10
_chemical_formula_structural   CePtN2
_chemical_formula_sum   'Ce2 Pt2 N4'
_cell_volume   117.42313779
_cell_formula_units_Z   2
loop_
 _symmetry_equiv_pos_site_id
 _symmetry_equiv_pos_as_xyz
  1  'x, y, z'
  2  '-x, -y, -z'
  3  '-x, y, -z'
  4  'x, -y, z'
loop_
 _atom_site_type_symbol
 _atom_site_label
 _atom_site_symmetry_multiplicity
 _atom_site_fract_x
 _atom_site_fract_y
 _atom_site_fract_z
 _atom_site_occupancy
  Ce  Ce0  1  0.00000000  0.00000000  0.00000000  1
  Ce  Ce1  1  0.50000000  0.00000000  0.50000000  1
  Pt  Pt2  1  0.00000000  0.00000000  0.50000000  1
  Pt  Pt3  1  0.50000000  0.50000000  0.00000000  1
  N  N4  2  0.20560830  0.50000000  0.57902650  1
  N  N5  2  0.33828520  0.00000000  0.13419823  1
