# generated using pymatgen
data_CoPdF4
_symmetry_space_group_name_H-M   P2/c
_cell_length_a   4.90989858
_cell_length_b   5.92207504
_cell_length_c   5.39151507
_cell_angle_alpha   90.00000000
_cell_angle_beta   90.05945308
_cell_angle_gamma   90.00000000
_symmetry_Int_Tables_number   13
_chemical_formula_structural   CoPdF4
_chemical_formula_sum   'Co2 Pd2 F8'
_cell_volume   156.76785522
_cell_formula_units_Z   2
loop_
 _symmetry_equiv_pos_site_id
 _symmetry_equiv_pos_as_xyz
  1  'x, y, z'
  2  '-x, -y, -z'
  3  '-x, y, -z+1/2'
  4  'x, -y, z+1/2'
loop_
 _atom_site_type_symbol
 _atom_site_label
 _atom_site_symmetry_multiplicity
 _atom_site_fract_x
 _atom_site_fract_y
 _atom_site_fract_z
 _atom_site_occupancy
  Co  Co0  2  0.50000000  0.35357491  0.25000000  1
  Pd  Pd1  2  0.00000000  0.15426135  0.75000000  1
  F  F2  4  0.24706899  0.12400774  0.40855468  1
  F  F3  4  0.27516844  0.39766822  0.93142283  1
