# generated using pymatgen
data_CrAgI4
_symmetry_space_group_name_H-M   P2/m
_cell_length_a   6.92418125
_cell_length_b   4.09111645
_cell_length_c   7.64898606
_cell_angle_alpha   90.00000000
_cell_angle_beta   92.53037359
_cell_angle_gamma   90.00000000
_symmetry_Int_Tables_number   10
_chemical_formula_structural   CrAgI4
_chemical_formula_sum   'Cr1 Ag1 I4'
_cell_volume   216.46639094
_cell_formula_units_Z   1
loop_
 _symmetry_equiv_pos_site_id
 _symmetry_equiv_pos_as_xyz
  1  'x, y, z'
  2  '-x, -y, -z'
  3  '-x, y, -z'
  4  'x, -y, z'
loop_
 _atom_site_type_symbol
 _atom_site_label
 _atom_site_symmetry_multiplicity
 _atom_site_fract_x
 _atom_site_fract_y
 _atom_site_fract_z
 _atom_site_occupancy
  Cr  Cr0  1  0.50000000  0.00000000  0.00000000  1
  Ag  Ag1  1  0.50000000  0.50000000  0.50000000  1
  I  I2  2  0.27025359  0.50000000  0.86011704  1
  I  I3  2  0.28062852  0.00000000  0.29193372  1
