# generated using pymatgen
data_Cs2ClF
_symmetry_space_group_name_H-M   C2/c
_cell_length_a   9.57842698
_cell_length_b   9.61773439
_cell_length_c   7.97186155
_cell_angle_alpha   90.00000000
_cell_angle_beta   126.15916773
_cell_angle_gamma   90.00000000
_symmetry_Int_Tables_number   15
_chemical_formula_structural   Cs2ClF
_chemical_formula_sum   'Cs8 Cl4 F4'
_cell_volume   592.93248973
_cell_formula_units_Z   4
loop_
 _symmetry_equiv_pos_site_id
 _symmetry_equiv_pos_as_xyz
  1  'x, y, z'
  2  '-x, -y, -z'
  3  '-x, y, -z+1/2'
  4  'x, -y, z+1/2'
  5  'x+1/2, y+1/2, z'
  6  '-x+1/2, -y+1/2, -z'
  7  '-x+1/2, y+1/2, -z+1/2'
  8  'x+1/2, -y+1/2, z+1/2'
loop_
 _atom_site_type_symbol
 _atom_site_label
 _atom_site_symmetry_multiplicity
 _atom_site_fract_x
 _atom_site_fract_y
 _atom_site_fract_z
 _atom_site_occupancy
  Cs  Cs0  8  0.22644131  0.37826776  0.20017333  1
  Cl  Cl1  4  0.00000000  0.12993577  0.25000000  1
  F  F2  4  0.00000000  0.38091339  0.75000000  1
