# generated using pymatgen
data_Cs2HBr
_symmetry_space_group_name_H-M   C2/c
_cell_length_a   10.10104228
_cell_length_b   10.08963379
_cell_length_c   8.50057524
_cell_angle_alpha   90.00000000
_cell_angle_beta   126.08806573
_cell_angle_gamma   90.00000000
_symmetry_Int_Tables_number   15
_chemical_formula_structural   Cs2HBr
_chemical_formula_sum   'Cs8 H4 Br4'
_cell_volume   700.10274734
_cell_formula_units_Z   4
loop_
 _symmetry_equiv_pos_site_id
 _symmetry_equiv_pos_as_xyz
  1  'x, y, z'
  2  '-x, -y, -z'
  3  '-x, y, -z+1/2'
  4  'x, -y, z+1/2'
  5  'x+1/2, y+1/2, z'
  6  '-x+1/2, -y+1/2, -z'
  7  '-x+1/2, y+1/2, -z+1/2'
  8  'x+1/2, -y+1/2, z+1/2'
loop_
 _atom_site_type_symbol
 _atom_site_label
 _atom_site_symmetry_multiplicity
 _atom_site_fract_x
 _atom_site_fract_y
 _atom_site_fract_z
 _atom_site_occupancy
  Cs  Cs0  8  0.22775094  0.13151917  0.70982227  1
  H  H1  4  0.00000000  0.12596774  0.25000000  1
  Br  Br2  4  0.00000000  0.38422880  0.75000000  1
