# generated using pymatgen
data_CsAuCl4
_symmetry_space_group_name_H-M   P2/c
_cell_length_a   9.81387678
_cell_length_b   5.66942301
_cell_length_c   13.34605620
_cell_angle_alpha   90.00000000
_cell_angle_beta   132.36104129
_cell_angle_gamma   90.00000000
_symmetry_Int_Tables_number   13
_chemical_formula_structural   CsAuCl4
_chemical_formula_sum   'Cs2 Au2 Cl8'
_cell_volume   548.68882059
_cell_formula_units_Z   2
loop_
 _symmetry_equiv_pos_site_id
 _symmetry_equiv_pos_as_xyz
  1  'x, y, z'
  2  '-x, -y, -z'
  3  '-x, y, -z+1/2'
  4  'x, -y, z+1/2'
loop_
 _atom_site_type_symbol
 _atom_site_label
 _atom_site_symmetry_multiplicity
 _atom_site_fract_x
 _atom_site_fract_y
 _atom_site_fract_z
 _atom_site_occupancy
  Cs  Cs0  2  0.50000000  0.46562951  0.75000000  1
  Au  Au1  2  0.00000000  0.00000000  0.00000000  1
  Cl  Cl2  4  0.11368533  0.27015162  0.17010126  1
  Cl  Cl3  4  0.26370116  0.03547471  0.03425351  1
