# generated using pymatgen
data_CsBiO2
_symmetry_space_group_name_H-M   C2/c
_cell_length_a   10.66332053
_cell_length_b   10.84201198
_cell_length_c   14.92100790
_cell_angle_alpha   90.00000000
_cell_angle_beta   107.52412220
_cell_angle_gamma   90.00000000
_symmetry_Int_Tables_number   15
_chemical_formula_structural   CsBiO2
_chemical_formula_sum   'Cs16 Bi16 O32'
_cell_volume   1644.98641657
_cell_formula_units_Z   16
loop_
 _symmetry_equiv_pos_site_id
 _symmetry_equiv_pos_as_xyz
  1  'x, y, z'
  2  '-x, -y, -z'
  3  '-x, y, -z+1/2'
  4  'x, -y, z+1/2'
  5  'x+1/2, y+1/2, z'
  6  '-x+1/2, -y+1/2, -z'
  7  '-x+1/2, y+1/2, -z+1/2'
  8  'x+1/2, -y+1/2, z+1/2'
loop_
 _atom_site_type_symbol
 _atom_site_label
 _atom_site_symmetry_multiplicity
 _atom_site_fract_x
 _atom_site_fract_y
 _atom_site_fract_z
 _atom_site_occupancy
  Cs  Cs0  8  0.07436456  0.46965828  0.38411835  1
  Cs  Cs1  8  0.17516027  0.21486760  0.11631966  1
  Bi  Bi2  8  0.05309642  0.15721134  0.63891157  1
  Bi  Bi3  8  0.19584293  0.06451498  0.35066363  1
  O  O4  8  0.05008477  0.31507211  0.55766776  1
  O  O5  8  0.14760346  0.08269543  0.93244340  1
  O  O6  8  0.22356022  0.45416378  0.23069872  1
  O  O7  4  0.00000000  0.09384253  0.25000000  1
  O  O8  4  0.00000000  0.25285603  0.75000000  1
