# generated using pymatgen
data_CsDyS2
_symmetry_space_group_name_H-M   P2/m
_cell_length_a   8.39187506
_cell_length_b   4.37618195
_cell_length_c   8.64918333
_cell_angle_alpha   90.00000000
_cell_angle_beta   91.11393017
_cell_angle_gamma   90.00000000
_symmetry_Int_Tables_number   10
_chemical_formula_structural   CsDyS2
_chemical_formula_sum   'Cs2 Dy2 S4'
_cell_volume   317.57579914
_cell_formula_units_Z   2
loop_
 _symmetry_equiv_pos_site_id
 _symmetry_equiv_pos_as_xyz
  1  'x, y, z'
  2  '-x, -y, -z'
  3  '-x, y, -z'
  4  'x, -y, z'
loop_
 _atom_site_type_symbol
 _atom_site_label
 _atom_site_symmetry_multiplicity
 _atom_site_fract_x
 _atom_site_fract_y
 _atom_site_fract_z
 _atom_site_occupancy
  Cs  Cs0  1  0.00000000  0.00000000  0.50000000  1
  Cs  Cs1  1  0.00000000  0.50000000  0.00000000  1
  Dy  Dy2  2  0.40426631  0.50000000  0.68586256  1
  S  S3  2  0.28157089  0.00000000  0.80976015  1
  S  S4  2  0.30196042  0.50000000  0.39985112  1
