# generated using pymatgen
data_CsEuCl4
_symmetry_space_group_name_H-M   P2/c
_cell_length_a   7.90050267
_cell_length_b   7.89714829
_cell_length_c   7.50941982
_cell_angle_alpha   90.00000000
_cell_angle_beta   97.24595815
_cell_angle_gamma   90.00000000
_symmetry_Int_Tables_number   13
_chemical_formula_structural   CsEuCl4
_chemical_formula_sum   'Cs2 Eu2 Cl8'
_cell_volume   464.78182497
_cell_formula_units_Z   2
loop_
 _symmetry_equiv_pos_site_id
 _symmetry_equiv_pos_as_xyz
  1  'x, y, z'
  2  '-x, -y, -z'
  3  '-x, y, -z+1/2'
  4  'x, -y, z+1/2'
loop_
 _atom_site_type_symbol
 _atom_site_label
 _atom_site_symmetry_multiplicity
 _atom_site_fract_x
 _atom_site_fract_y
 _atom_site_fract_z
 _atom_site_occupancy
  Cs  Cs0  2  0.00000000  0.21544960  0.25000000  1
  Eu  Eu1  2  0.50000000  0.34872613  0.75000000  1
  Cl  Cl2  4  0.27390448  0.11641066  0.62589826  1
  Cl  Cl3  4  0.29548548  0.43172583  0.01685493  1
