# generated using pymatgen
data_CsIrSe2
_symmetry_space_group_name_H-M   P-1
_cell_length_a   6.65014199
_cell_length_b   6.95735456
_cell_length_c   7.18487876
_cell_angle_alpha   61.44589697
_cell_angle_beta   78.99776094
_cell_angle_gamma   67.24429828
_symmetry_Int_Tables_number   2
_chemical_formula_structural   CsIrSe2
_chemical_formula_sum   'Cs2 Ir2 Se4'
_cell_volume   269.25624381
_cell_formula_units_Z   2
loop_
 _symmetry_equiv_pos_site_id
 _symmetry_equiv_pos_as_xyz
  1  'x, y, z'
  2  '-x, -y, -z'
loop_
 _atom_site_type_symbol
 _atom_site_label
 _atom_site_symmetry_multiplicity
 _atom_site_fract_x
 _atom_site_fract_y
 _atom_site_fract_z
 _atom_site_occupancy
  Cs  Cs0  2  0.26938233  0.33680725  0.35519371  1
  Ir  Ir1  2  0.20617110  0.00514260  0.99425256  1
  Se  Se2  2  0.10357909  0.82780082  0.82921659  1
  Se  Se3  2  0.42127430  0.25774994  0.88384515  1
