# generated using pymatgen
data_CsMnF4
_symmetry_space_group_name_H-M   P2/c
_cell_length_a   5.67766507
_cell_length_b   7.13926348
_cell_length_c   5.83649332
_cell_angle_alpha   90.00000000
_cell_angle_beta   90.41698934
_cell_angle_gamma   90.00000000
_symmetry_Int_Tables_number   13
_chemical_formula_structural   CsMnF4
_chemical_formula_sum   'Cs2 Mn2 F8'
_cell_volume   236.57217965
_cell_formula_units_Z   2
loop_
 _symmetry_equiv_pos_site_id
 _symmetry_equiv_pos_as_xyz
  1  'x, y, z'
  2  '-x, -y, -z'
  3  '-x, y, -z+1/2'
  4  'x, -y, z+1/2'
loop_
 _atom_site_type_symbol
 _atom_site_label
 _atom_site_symmetry_multiplicity
 _atom_site_fract_x
 _atom_site_fract_y
 _atom_site_fract_z
 _atom_site_occupancy
  Cs  Cs0  2  0.00000000  0.16185697  0.75000000  1
  Mn  Mn1  2  0.50000000  0.38038176  0.25000000  1
  F  F2  4  0.28731334  0.19747487  0.33503605  1
  F  F3  4  0.31887056  0.43330096  0.90494269  1
