# generated using pymatgen
data_CsSmBr4
_symmetry_space_group_name_H-M   P2/c
_cell_length_a   8.23690035
_cell_length_b   8.41280772
_cell_length_c   7.82591554
_cell_angle_alpha   90.00000000
_cell_angle_beta   98.72589781
_cell_angle_gamma   90.00000000
_symmetry_Int_Tables_number   13
_chemical_formula_structural   CsSmBr4
_chemical_formula_sum   'Cs2 Sm2 Br8'
_cell_volume   536.02350640
_cell_formula_units_Z   2
loop_
 _symmetry_equiv_pos_site_id
 _symmetry_equiv_pos_as_xyz
  1  'x, y, z'
  2  '-x, -y, -z'
  3  '-x, y, -z+1/2'
  4  'x, -y, z+1/2'
loop_
 _atom_site_type_symbol
 _atom_site_label
 _atom_site_symmetry_multiplicity
 _atom_site_fract_x
 _atom_site_fract_y
 _atom_site_fract_z
 _atom_site_occupancy
  Cs  Cs0  2  0.00000000  0.27894422  0.75000000  1
  Sm  Sm1  2  0.50000000  0.15701217  0.25000000  1
  Br  Br2  4  0.26473560  0.38430049  0.14291773  1
  Br  Br3  4  0.29643409  0.06916907  0.51369488  1
