# generated using pymatgen
data_CsTlTe2
_symmetry_space_group_name_H-M   C2/c
_cell_length_a   12.90469198
_cell_length_b   12.90438395
_cell_length_c   18.55147657
_cell_angle_alpha   90.00000000
_cell_angle_beta   100.07660677
_cell_angle_gamma   90.00000000
_symmetry_Int_Tables_number   15
_chemical_formula_structural   CsTlTe2
_chemical_formula_sum   'Cs16 Tl16 Te32'
_cell_volume   3041.66984812
_cell_formula_units_Z   16
loop_
 _symmetry_equiv_pos_site_id
 _symmetry_equiv_pos_as_xyz
  1  'x, y, z'
  2  '-x, -y, -z'
  3  '-x, y, -z+1/2'
  4  'x, -y, z+1/2'
  5  'x+1/2, y+1/2, z'
  6  '-x+1/2, -y+1/2, -z'
  7  '-x+1/2, y+1/2, -z+1/2'
  8  'x+1/2, -y+1/2, z+1/2'
loop_
 _atom_site_type_symbol
 _atom_site_label
 _atom_site_symmetry_multiplicity
 _atom_site_fract_x
 _atom_site_fract_y
 _atom_site_fract_z
 _atom_site_occupancy
  Cs  Cs0  8  0.03744193  0.18850703  0.39592537  1
  Cs  Cs1  8  0.21617839  0.43843820  0.11625128  1
  Tl  Tl2  8  0.10346831  0.18726053  0.66418779  1
  Tl  Tl3  8  0.14634420  0.43720823  0.83538322  1
  Te  Te4  8  0.04576291  0.31287891  0.93300036  1
  Te  Te5  8  0.20491214  0.06241533  0.56544490  1
  Te  Te6  8  0.23279629  0.18834916  0.24961548  1
  Te  Te7  4  0.00000000  0.04515560  0.75000000  1
  Te  Te8  4  0.00000000  0.42059390  0.25000000  1
