# generated using pymatgen
data_CsTlI2
_symmetry_space_group_name_H-M   C2/c
_cell_length_a   14.41003722
_cell_length_b   14.41587233
_cell_length_c   18.99287403
_cell_angle_alpha   90.00000000
_cell_angle_beta   101.62469545
_cell_angle_gamma   90.00000000
_symmetry_Int_Tables_number   15
_chemical_formula_structural   CsTlI2
_chemical_formula_sum   'Cs16 Tl16 I32'
_cell_volume   3864.52441478
_cell_formula_units_Z   16
loop_
 _symmetry_equiv_pos_site_id
 _symmetry_equiv_pos_as_xyz
  1  'x, y, z'
  2  '-x, -y, -z'
  3  '-x, y, -z+1/2'
  4  'x, -y, z+1/2'
  5  'x+1/2, y+1/2, z'
  6  '-x+1/2, -y+1/2, -z'
  7  '-x+1/2, y+1/2, -z+1/2'
  8  'x+1/2, -y+1/2, z+1/2'
loop_
 _atom_site_type_symbol
 _atom_site_label
 _atom_site_symmetry_multiplicity
 _atom_site_fract_x
 _atom_site_fract_y
 _atom_site_fract_z
 _atom_site_occupancy
  Cs  Cs0  8  0.03101358  0.18905903  0.37406748  1
  Cs  Cs1  8  0.22044451  0.43911665  0.13766142  1
  Tl  Tl2  8  0.09814489  0.18462024  0.63895284  1
  Tl  Tl3  8  0.15254379  0.43631749  0.85740308  1
  I  I4  8  0.05710868  0.31633834  0.97578257  1
  I  I5  8  0.19728351  0.06030019  0.52319057  1
  I  I6  8  0.22692945  0.18952671  0.25191311  1
  I  I7  4  0.00000000  0.03961476  0.75000000  1
  I  I8  4  0.00000000  0.41321902  0.25000000  1
