# generated using pymatgen
data_CsWCl4
_symmetry_space_group_name_H-M   P2/c
_cell_length_a   7.03838042
_cell_length_b   9.15016430
_cell_length_c   6.44151848
_cell_angle_alpha   90.00000000
_cell_angle_beta   96.90576538
_cell_angle_gamma   90.00000000
_symmetry_Int_Tables_number   13
_chemical_formula_structural   CsWCl4
_chemical_formula_sum   'Cs2 W2 Cl8'
_cell_volume   411.83921978
_cell_formula_units_Z   2
loop_
 _symmetry_equiv_pos_site_id
 _symmetry_equiv_pos_as_xyz
  1  'x, y, z'
  2  '-x, -y, -z'
  3  '-x, y, -z+1/2'
  4  'x, -y, z+1/2'
loop_
 _atom_site_type_symbol
 _atom_site_label
 _atom_site_symmetry_multiplicity
 _atom_site_fract_x
 _atom_site_fract_y
 _atom_site_fract_z
 _atom_site_occupancy
  Cs  Cs0  2  0.50000000  0.35500727  0.75000000  1
  W  W1  2  0.00000000  0.11124509  0.25000000  1
  Cl  Cl2  4  0.18897290  0.08359238  0.59706076  1
  Cl  Cl3  4  0.21596148  0.29684093  0.15466590  1
