# generated using pymatgen
data_CsYF4
_symmetry_space_group_name_H-M   P2/c
_cell_length_a   6.54796402
_cell_length_b   6.62265582
_cell_length_c   6.18573969
_cell_angle_alpha   90.00000000
_cell_angle_beta   95.11415426
_cell_angle_gamma   90.00000000
_symmetry_Int_Tables_number   13
_chemical_formula_structural   CsYF4
_chemical_formula_sum   'Cs2 Y2 F8'
_cell_volume   267.17619775
_cell_formula_units_Z   2
loop_
 _symmetry_equiv_pos_site_id
 _symmetry_equiv_pos_as_xyz
  1  'x, y, z'
  2  '-x, -y, -z'
  3  '-x, y, -z+1/2'
  4  'x, -y, z+1/2'
loop_
 _atom_site_type_symbol
 _atom_site_label
 _atom_site_symmetry_multiplicity
 _atom_site_fract_x
 _atom_site_fract_y
 _atom_site_fract_z
 _atom_site_occupancy
  Cs  Cs0  2  0.00000000  0.21198248  0.75000000  1
  Y  Y1  2  0.50000000  0.33729613  0.25000000  1
  F  F2  4  0.27836335  0.12507178  0.14067873  1
  F  F3  4  0.31760997  0.43809831  0.51967779  1
