# generated using pymatgen
data_Cu2ICl
_symmetry_space_group_name_H-M   P2/m
_cell_length_a   6.72528311
_cell_length_b   4.63184203
_cell_length_c   7.48392477
_cell_angle_alpha   90.00000000
_cell_angle_beta   109.48350941
_cell_angle_gamma   90.00000000
_symmetry_Int_Tables_number   10
_chemical_formula_structural   Cu2ICl
_chemical_formula_sum   'Cu4 I2 Cl2'
_cell_volume   219.77815279
_cell_formula_units_Z   2
loop_
 _symmetry_equiv_pos_site_id
 _symmetry_equiv_pos_as_xyz
  1  'x, y, z'
  2  '-x, -y, -z'
  3  '-x, y, -z'
  4  'x, -y, z'
loop_
 _atom_site_type_symbol
 _atom_site_label
 _atom_site_symmetry_multiplicity
 _atom_site_fract_x
 _atom_site_fract_y
 _atom_site_fract_z
 _atom_site_occupancy
  Cu  Cu0  2  0.25095393  0.00000000  0.71118655  1
  Cu  Cu1  2  0.32083457  0.50000000  0.22031651  1
  I  I2  2  0.28190216  0.50000000  0.58830691  1
  Cl  Cl3  1  0.00000000  0.50000000  0.00000000  1
  Cl  Cl4  1  0.50000000  0.00000000  0.00000000  1
