# generated using pymatgen
data_CuSbO2
_symmetry_space_group_name_H-M   C2/c
_cell_length_a   9.94855928
_cell_length_b   4.39667083
_cell_length_c   11.24153762
_cell_angle_alpha   90.00000000
_cell_angle_beta   100.46840460
_cell_angle_gamma   90.00000000
_symmetry_Int_Tables_number   15
_chemical_formula_structural   CuSbO2
_chemical_formula_sum   'Cu8 Sb8 O16'
_cell_volume   483.52652530
_cell_formula_units_Z   8
loop_
 _symmetry_equiv_pos_site_id
 _symmetry_equiv_pos_as_xyz
  1  'x, y, z'
  2  '-x, -y, -z'
  3  '-x, y, -z+1/2'
  4  'x, -y, z+1/2'
  5  'x+1/2, y+1/2, z'
  6  '-x+1/2, -y+1/2, -z'
  7  '-x+1/2, y+1/2, -z+1/2'
  8  'x+1/2, -y+1/2, z+1/2'
loop_
 _atom_site_type_symbol
 _atom_site_label
 _atom_site_symmetry_multiplicity
 _atom_site_fract_x
 _atom_site_fract_y
 _atom_site_fract_z
 _atom_site_occupancy
  Cu  Cu0  4  0.00000000  0.07566322  0.75000000  1
  Cu  Cu1  4  0.00000000  0.50000000  0.00000000  1
  Sb  Sb2  8  0.23821720  0.04481595  0.62460134  1
  O  O3  8  0.10369033  0.28432713  0.90248171  1
  O  O4  8  0.15231871  0.26344159  0.22120418  1
