# generated using pymatgen
data_DyCuCl4
_symmetry_space_group_name_H-M   P2/c
_cell_length_a   6.81968538
_cell_length_b   8.35422280
_cell_length_c   6.83708394
_cell_angle_alpha   90.00000000
_cell_angle_beta   110.69133533
_cell_angle_gamma   90.00000000
_symmetry_Int_Tables_number   13
_chemical_formula_structural   DyCuCl4
_chemical_formula_sum   'Dy2 Cu2 Cl8'
_cell_volume   364.40466200
_cell_formula_units_Z   2
loop_
 _symmetry_equiv_pos_site_id
 _symmetry_equiv_pos_as_xyz
  1  'x, y, z'
  2  '-x, -y, -z'
  3  '-x, y, -z+1/2'
  4  'x, -y, z+1/2'
loop_
 _atom_site_type_symbol
 _atom_site_label
 _atom_site_symmetry_multiplicity
 _atom_site_fract_x
 _atom_site_fract_y
 _atom_site_fract_z
 _atom_site_occupancy
  Dy  Dy0  2  0.00000000  0.13004542  0.25000000  1
  Cu  Cu1  2  0.50000000  0.33892499  0.75000000  1
  Cl  Cl2  4  0.22797464  0.09520912  0.00786130  1
  Cl  Cl3  4  0.24170112  0.36420500  0.46433562  1
