# generated using pymatgen
data_DyHBr4
_symmetry_space_group_name_H-M   P2_1/c
_cell_length_a   7.21277876
_cell_length_b   9.72191919
_cell_length_c   13.54190901
_cell_angle_alpha   90.00000000
_cell_angle_beta   109.62576444
_cell_angle_gamma   90.00000000
_symmetry_Int_Tables_number   14
_chemical_formula_structural   DyHBr4
_chemical_formula_sum   'Dy4 H4 Br16'
_cell_volume   894.42166373
_cell_formula_units_Z   4
loop_
 _symmetry_equiv_pos_site_id
 _symmetry_equiv_pos_as_xyz
  1  'x, y, z'
  2  '-x, -y, -z'
  3  '-x, y+1/2, -z+1/2'
  4  'x, -y+1/2, z+1/2'
loop_
 _atom_site_type_symbol
 _atom_site_label
 _atom_site_symmetry_multiplicity
 _atom_site_fract_x
 _atom_site_fract_y
 _atom_site_fract_z
 _atom_site_occupancy
  Dy  Dy0  4  0.24809982  0.10843920  0.99726237  1
  H  H1  4  0.24307132  0.24187379  0.74226615  1
  Br  Br2  4  0.15127144  0.58615349  0.62593841  1
  Br  Br3  4  0.20090332  0.16991460  0.62308491  1
  Br  Br4  4  0.28968320  0.18087180  0.36403935  1
  Br  Br5  4  0.35250387  0.59380603  0.37723919  1
