# generated using pymatgen
data_DyHF4
_symmetry_space_group_name_H-M   P2/c
_cell_length_a   5.05847764
_cell_length_b   5.44597712
_cell_length_c   5.49921753
_cell_angle_alpha   90.00000000
_cell_angle_beta   110.57248358
_cell_angle_gamma   90.00000000
_symmetry_Int_Tables_number   13
_chemical_formula_structural   DyHF4
_chemical_formula_sum   'Dy2 H2 F8'
_cell_volume   141.83334909
_cell_formula_units_Z   2
loop_
 _symmetry_equiv_pos_site_id
 _symmetry_equiv_pos_as_xyz
  1  'x, y, z'
  2  '-x, -y, -z'
  3  '-x, y, -z+1/2'
  4  'x, -y, z+1/2'
loop_
 _atom_site_type_symbol
 _atom_site_label
 _atom_site_symmetry_multiplicity
 _atom_site_fract_x
 _atom_site_fract_y
 _atom_site_fract_z
 _atom_site_occupancy
  Dy  Dy0  2  0.50000000  0.28607849  0.25000000  1
  H  H1  2  0.00000000  0.06857581  0.75000000  1
  F  F2  4  0.23997092  0.05823124  0.86170027  1
  F  F3  4  0.26013552  0.42605398  0.48685239  1
