# generated using pymatgen
data_DyHS2
_symmetry_space_group_name_H-M   P1
_cell_length_a   3.78637900
_cell_length_b   5.30776655
_cell_length_c   7.68204656
_cell_angle_alpha   99.22101864
_cell_angle_beta   92.02688473
_cell_angle_gamma   110.23561881
_symmetry_Int_Tables_number   1
_chemical_formula_structural   DyHS2
_chemical_formula_sum   'Dy2 H2 S4'
_cell_volume   142.29798146
_cell_formula_units_Z   2
loop_
 _symmetry_equiv_pos_site_id
 _symmetry_equiv_pos_as_xyz
  1  'x, y, z'
loop_
 _atom_site_type_symbol
 _atom_site_label
 _atom_site_symmetry_multiplicity
 _atom_site_fract_x
 _atom_site_fract_y
 _atom_site_fract_z
 _atom_site_occupancy
  Dy  Dy0  1  0.52835259  0.27840092  0.15760918  1
  Dy  Dy1  1  0.78152464  0.75861250  0.82545384  1
  H  H2  1  0.26156042  0.14087077  0.63576730  1
  H  H3  1  0.94007304  0.10834683  0.03918925  1
  S  S4  1  0.02126317  0.22262973  0.41601504  1
  S  S5  1  0.20738682  0.62451843  0.55633267  1
  S  S6  1  0.24808505  0.68942620  0.08383551  1
  S  S7  1  0.51175429  0.17719463  0.78579720  1
