# generated using pymatgen
data_DyMnN2
_symmetry_space_group_name_H-M   P2/m
_cell_length_a   5.44097841
_cell_length_b   3.22690257
_cell_length_c   5.97143542
_cell_angle_alpha   90.00000000
_cell_angle_beta   90.17357541
_cell_angle_gamma   90.00000000
_symmetry_Int_Tables_number   10
_chemical_formula_structural   DyMnN2
_chemical_formula_sum   'Dy2 Mn2 N4'
_cell_volume   104.84303934
_cell_formula_units_Z   2
loop_
 _symmetry_equiv_pos_site_id
 _symmetry_equiv_pos_as_xyz
  1  'x, y, z'
  2  '-x, -y, -z'
  3  '-x, y, -z'
  4  'x, -y, z'
loop_
 _atom_site_type_symbol
 _atom_site_label
 _atom_site_symmetry_multiplicity
 _atom_site_fract_x
 _atom_site_fract_y
 _atom_site_fract_z
 _atom_site_occupancy
  Dy  Dy0  1  0.50000000  0.00000000  0.50000000  1
  Dy  Dy1  1  0.50000000  0.50000000  0.00000000  1
  Mn  Mn2  2  0.10718325  0.50000000  0.32175039  1
  N  N3  2  0.22121062  0.50000000  0.62465522  1
  N  N4  2  0.23737511  0.00000000  0.18904786  1
