# generated using pymatgen
data_DyPN2
_symmetry_space_group_name_H-M   P-1
_cell_length_a   3.68783020
_cell_length_b   5.55243405
_cell_length_c   6.19583471
_cell_angle_alpha   79.62071945
_cell_angle_beta   89.72482717
_cell_angle_gamma   72.32699237
_symmetry_Int_Tables_number   2
_chemical_formula_structural   DyPN2
_chemical_formula_sum   'Dy2 P2 N4'
_cell_volume   118.73437333
_cell_formula_units_Z   2
loop_
 _symmetry_equiv_pos_site_id
 _symmetry_equiv_pos_as_xyz
  1  'x, y, z'
  2  '-x, -y, -z'
loop_
 _atom_site_type_symbol
 _atom_site_label
 _atom_site_symmetry_multiplicity
 _atom_site_fract_x
 _atom_site_fract_y
 _atom_site_fract_z
 _atom_site_occupancy
  Dy  Dy0  1  0.00000000  0.00000000  0.00000000  1
  Dy  Dy1  1  0.50000000  0.00000000  0.50000000  1
  P  P2  2  0.41702827  0.50829658  0.68657783  1
  N  N3  2  0.09419285  0.77324657  0.70488705  1
  N  N4  2  0.40004639  0.22664339  0.79971842  1
