# generated using pymatgen
data_ErAsO4
_symmetry_space_group_name_H-M   P2/c
_cell_length_a   4.96955813
_cell_length_b   5.41530389
_cell_length_c   5.15843098
_cell_angle_alpha   90.00000000
_cell_angle_beta   97.83909399
_cell_angle_gamma   90.00000000
_symmetry_Int_Tables_number   13
_chemical_formula_structural   ErAsO4
_chemical_formula_sum   'Er2 As2 O8'
_cell_volume   137.52468896
_cell_formula_units_Z   2
loop_
 _symmetry_equiv_pos_site_id
 _symmetry_equiv_pos_as_xyz
  1  'x, y, z'
  2  '-x, -y, -z'
  3  '-x, y, -z+1/2'
  4  'x, -y, z+1/2'
loop_
 _atom_site_type_symbol
 _atom_site_label
 _atom_site_symmetry_multiplicity
 _atom_site_fract_x
 _atom_site_fract_y
 _atom_site_fract_z
 _atom_site_occupancy
  Er  Er0  2  0.00000000  0.21626684  0.75000000  1
  As  As1  2  0.50000000  0.32909959  0.25000000  1
  O  O2  4  0.25453714  0.11106701  0.11680211  1
  O  O3  4  0.28340791  0.42232369  0.51731536  1
