# generated using pymatgen
data_ErAuO2
_symmetry_space_group_name_H-M   C2/m
_cell_length_a   8.28579536
_cell_length_b   8.31297683
_cell_length_c   6.85979172
_cell_angle_alpha   90.00000000
_cell_angle_beta   125.69353369
_cell_angle_gamma   90.00000000
_symmetry_Int_Tables_number   12
_chemical_formula_structural   ErAuO2
_chemical_formula_sum   'Er4 Au4 O8'
_cell_volume   383.74048461
_cell_formula_units_Z   4
loop_
 _symmetry_equiv_pos_site_id
 _symmetry_equiv_pos_as_xyz
  1  'x, y, z'
  2  '-x, -y, -z'
  3  '-x, y, -z'
  4  'x, -y, z'
  5  'x+1/2, y+1/2, z'
  6  '-x+1/2, -y+1/2, -z'
  7  '-x+1/2, y+1/2, -z'
  8  'x+1/2, -y+1/2, z'
loop_
 _atom_site_type_symbol
 _atom_site_label
 _atom_site_symmetry_multiplicity
 _atom_site_fract_x
 _atom_site_fract_y
 _atom_site_fract_z
 _atom_site_occupancy
  Er  Er0  4  0.25000000  0.25000000  0.00000000  1
  Au  Au1  4  0.00000000  0.24983993  0.50000000  1
  O  O2  4  0.00000000  0.31241044  0.00000000  1
  O  O3  4  0.18850787  0.00000000  0.00005718  1
