# generated using pymatgen
data_ErH2Cl
_symmetry_space_group_name_H-M   P2/m
_cell_length_a   7.90498464
_cell_length_b   3.28537814
_cell_length_c   8.07267865
_cell_angle_alpha   90.00000000
_cell_angle_beta   104.68293410
_cell_angle_gamma   90.00000000
_symmetry_Int_Tables_number   10
_chemical_formula_structural   ErH2Cl
_chemical_formula_sum   'Er2 H4 Cl2'
_cell_volume   202.80781379
_cell_formula_units_Z   2
loop_
 _symmetry_equiv_pos_site_id
 _symmetry_equiv_pos_as_xyz
  1  'x, y, z'
  2  '-x, -y, -z'
  3  '-x, y, -z'
  4  'x, -y, z'
loop_
 _atom_site_type_symbol
 _atom_site_label
 _atom_site_symmetry_multiplicity
 _atom_site_fract_x
 _atom_site_fract_y
 _atom_site_fract_z
 _atom_site_occupancy
  Er  Er0  2  0.15865409  0.00000000  0.30964792  1
  H  H1  2  0.00281548  0.50000000  0.18756987  1
  H  H2  2  0.16205305  0.50000000  0.48475648  1
  Cl  Cl3  2  0.38714442  0.50000000  0.23813968  1
