# generated using pymatgen
data_ErHI2
_symmetry_space_group_name_H-M   C2/c
_cell_length_a   8.71390100
_cell_length_b   16.36904937
_cell_length_c   7.04141749
_cell_angle_alpha   90.00000000
_cell_angle_beta   119.30002730
_cell_angle_gamma   90.00000000
_symmetry_Int_Tables_number   15
_chemical_formula_structural   ErHI2
_chemical_formula_sum   'Er8 H8 I16'
_cell_volume   875.88490788
_cell_formula_units_Z   8
loop_
 _symmetry_equiv_pos_site_id
 _symmetry_equiv_pos_as_xyz
  1  'x, y, z'
  2  '-x, -y, -z'
  3  '-x, y, -z+1/2'
  4  'x, -y, z+1/2'
  5  'x+1/2, y+1/2, z'
  6  '-x+1/2, -y+1/2, -z'
  7  '-x+1/2, y+1/2, -z+1/2'
  8  'x+1/2, -y+1/2, z+1/2'
loop_
 _atom_site_type_symbol
 _atom_site_label
 _atom_site_symmetry_multiplicity
 _atom_site_fract_x
 _atom_site_fract_y
 _atom_site_fract_z
 _atom_site_occupancy
  Er  Er0  4  0.00000000  0.32541891  0.25000000  1
  Er  Er1  4  0.00000000  0.44558404  0.75000000  1
  H  H2  4  0.00000000  0.01996053  0.25000000  1
  H  H3  4  0.00000000  0.13055315  0.75000000  1
  I  I4  8  0.23128342  0.06223884  0.77410892  1
  I  I5  8  0.24843991  0.18436775  0.25945816  1
