# generated using pymatgen
data_ErHI4
_symmetry_space_group_name_H-M   P2/c
_cell_length_a   7.07885349
_cell_length_b   9.28967882
_cell_length_c   7.77023642
_cell_angle_alpha   90.00000000
_cell_angle_beta   93.14697527
_cell_angle_gamma   90.00000000
_symmetry_Int_Tables_number   13
_chemical_formula_structural   ErHI4
_chemical_formula_sum   'Er2 H2 I8'
_cell_volume   510.20233723
_cell_formula_units_Z   2
loop_
 _symmetry_equiv_pos_site_id
 _symmetry_equiv_pos_as_xyz
  1  'x, y, z'
  2  '-x, -y, -z'
  3  '-x, y, -z+1/2'
  4  'x, -y, z+1/2'
loop_
 _atom_site_type_symbol
 _atom_site_label
 _atom_site_symmetry_multiplicity
 _atom_site_fract_x
 _atom_site_fract_y
 _atom_site_fract_z
 _atom_site_occupancy
  Er  Er0  2  0.50000000  0.11233797  0.25000000  1
  H  H1  2  0.00000000  0.32897955  0.25000000  1
  I  I2  4  0.24102535  0.34328358  0.37546503  1
  I  I3  4  0.27051823  0.12146035  0.91515821  1
