# generated using pymatgen
data_ErTiN2
_symmetry_space_group_name_H-M   C2/c
_cell_length_a   6.48633136
_cell_length_b   12.85967918
_cell_length_c   5.52247876
_cell_angle_alpha   90.00000000
_cell_angle_beta   125.24863677
_cell_angle_gamma   90.00000000
_symmetry_Int_Tables_number   15
_chemical_formula_structural   ErTiN2
_chemical_formula_sum   'Er8 Ti8 N16'
_cell_volume   376.18553941
_cell_formula_units_Z   8
loop_
 _symmetry_equiv_pos_site_id
 _symmetry_equiv_pos_as_xyz
  1  'x, y, z'
  2  '-x, -y, -z'
  3  '-x, y, -z+1/2'
  4  'x, -y, z+1/2'
  5  'x+1/2, y+1/2, z'
  6  '-x+1/2, -y+1/2, -z'
  7  '-x+1/2, y+1/2, -z+1/2'
  8  'x+1/2, -y+1/2, z+1/2'
loop_
 _atom_site_type_symbol
 _atom_site_label
 _atom_site_symmetry_multiplicity
 _atom_site_fract_x
 _atom_site_fract_y
 _atom_site_fract_z
 _atom_site_occupancy
  Er  Er0  4  0.00000000  0.31161738  0.75000000  1
  Er  Er1  4  0.00000000  0.43684448  0.25000000  1
  Ti  Ti2  4  0.00000000  0.05759750  0.75000000  1
  Ti  Ti3  4  0.00000000  0.18038999  0.25000000  1
  N  N4  8  0.21879685  0.06286528  0.23112862  1
  N  N5  8  0.23698861  0.18712483  0.72539302  1
