# generated using pymatgen
data_EuCuS2
_symmetry_space_group_name_H-M   P2/m
_cell_length_a   6.26859705
_cell_length_b   3.98208263
_cell_length_c   7.06794776
_cell_angle_alpha   90.00000000
_cell_angle_beta   90.88204179
_cell_angle_gamma   90.00000000
_symmetry_Int_Tables_number   10
_chemical_formula_structural   EuCuS2
_chemical_formula_sum   'Eu2 Cu2 S4'
_cell_volume   176.40971105
_cell_formula_units_Z   2
loop_
 _symmetry_equiv_pos_site_id
 _symmetry_equiv_pos_as_xyz
  1  'x, y, z'
  2  '-x, -y, -z'
  3  '-x, y, -z'
  4  'x, -y, z'
loop_
 _atom_site_type_symbol
 _atom_site_label
 _atom_site_symmetry_multiplicity
 _atom_site_fract_x
 _atom_site_fract_y
 _atom_site_fract_z
 _atom_site_occupancy
  Eu  Eu0  1  0.00000000  0.00000000  0.00000000  1
  Eu  Eu1  1  0.00000000  0.50000000  0.50000000  1
  Cu  Cu2  2  0.37349663  0.50000000  0.83481952  1
  S  S3  2  0.25633788  0.00000000  0.68370982  1
  S  S4  2  0.25980530  0.50000000  0.15824719  1
