# generated using pymatgen
data_EuH4W
_symmetry_space_group_name_H-M   Pmma
_cell_length_a   4.60173450
_cell_length_b   4.77468992
_cell_length_c   6.24200082
_cell_angle_alpha   90.00000000
_cell_angle_beta   90.00000000
_cell_angle_gamma   90.00000000
_symmetry_Int_Tables_number   51
_chemical_formula_structural   EuH4W
_chemical_formula_sum   'Eu2 H8 W2'
_cell_volume   137.14833911
_cell_formula_units_Z   2
loop_
 _symmetry_equiv_pos_site_id
 _symmetry_equiv_pos_as_xyz
  1  'x, y, z'
  2  '-x, -y, -z'
  3  '-x+1/2, -y, z'
  4  'x+1/2, y, -z'
  5  'x+1/2, -y, -z'
  6  '-x+1/2, y, z'
  7  '-x, y, -z'
  8  'x, -y, z'
loop_
 _atom_site_type_symbol
 _atom_site_label
 _atom_site_symmetry_multiplicity
 _atom_site_fract_x
 _atom_site_fract_y
 _atom_site_fract_z
 _atom_site_occupancy
  Eu  Eu0  2  0.25000000  0.00000000  0.71044806  1
  H  H1  4  0.00000000  0.22494375  0.00000000  1
  H  H2  4  0.25000000  0.25909336  0.33147559  1
  W  W3  2  0.25000000  0.50000000  0.10282025  1
