# generated using pymatgen
data_FeCuBr4
_symmetry_space_group_name_H-M   P2_1/c
_cell_length_a   7.34832723
_cell_length_b   6.51672315
_cell_length_c   6.80105156
_cell_angle_alpha   90.00000000
_cell_angle_beta   110.70696028
_cell_angle_gamma   90.00000000
_symmetry_Int_Tables_number   14
_chemical_formula_structural   FeCuBr4
_chemical_formula_sum   'Fe2 Cu2 Br8'
_cell_volume   304.64334471
_cell_formula_units_Z   2
loop_
 _symmetry_equiv_pos_site_id
 _symmetry_equiv_pos_as_xyz
  1  'x, y, z'
  2  '-x, -y, -z'
  3  '-x, y+1/2, -z+1/2'
  4  'x, -y+1/2, z+1/2'
loop_
 _atom_site_type_symbol
 _atom_site_label
 _atom_site_symmetry_multiplicity
 _atom_site_fract_x
 _atom_site_fract_y
 _atom_site_fract_z
 _atom_site_occupancy
  Fe  Fe0  2  0.00000000  0.00000000  0.50000000  1
  Cu  Cu1  2  0.50000000  0.00000000  0.00000000  1
  Br  Br2  4  0.11492301  0.67309587  0.72616113  1
  Br  Br3  4  0.34658035  0.14803142  0.67292832  1
