# generated using pymatgen
data_GaBrCl2
_symmetry_space_group_name_H-M   P-1
_cell_length_a   3.81518646
_cell_length_b   9.37201744
_cell_length_c   9.91659252
_cell_angle_alpha   67.40811802
_cell_angle_beta   88.01813629
_cell_angle_gamma   84.51685307
_symmetry_Int_Tables_number   2
_chemical_formula_structural   GaBrCl2
_chemical_formula_sum   'Ga2 Br2 Cl4'
_cell_volume   325.87018973
_cell_formula_units_Z   2
loop_
 _symmetry_equiv_pos_site_id
 _symmetry_equiv_pos_as_xyz
  1  'x, y, z'
  2  '-x, -y, -z'
loop_
 _atom_site_type_symbol
 _atom_site_label
 _atom_site_symmetry_multiplicity
 _atom_site_fract_x
 _atom_site_fract_y
 _atom_site_fract_z
 _atom_site_occupancy
  Ga  Ga0  2  0.48271943  0.81277498  0.30474122  1
  Br  Br1  2  0.01746383  0.69991404  0.21548636  1
  Cl  Cl2  2  0.43924599  0.05845364  0.18882704  1
  Cl  Cl3  2  0.48054294  0.71474916  0.53774331  1
