# generated using pymatgen
data_GaH2Cl
_symmetry_space_group_name_H-M   P2/m
_cell_length_a   6.04355486
_cell_length_b   3.49791678
_cell_length_c   7.92217476
_cell_angle_alpha   90.00000000
_cell_angle_beta   92.83193182
_cell_angle_gamma   90.00000000
_symmetry_Int_Tables_number   10
_chemical_formula_structural   GaH2Cl
_chemical_formula_sum   'Ga2 H4 Cl2'
_cell_volume   167.26907591
_cell_formula_units_Z   2
loop_
 _symmetry_equiv_pos_site_id
 _symmetry_equiv_pos_as_xyz
  1  'x, y, z'
  2  '-x, -y, -z'
  3  '-x, y, -z'
  4  'x, -y, z'
loop_
 _atom_site_type_symbol
 _atom_site_label
 _atom_site_symmetry_multiplicity
 _atom_site_fract_x
 _atom_site_fract_y
 _atom_site_fract_z
 _atom_site_occupancy
  Ga  Ga0  2  0.24074260  0.00000000  0.36471043  1
  H  H1  2  0.04644790  0.50000000  0.97001454  1
  H  H2  2  0.46017864  0.50000000  0.96206610  1
  Cl  Cl3  2  0.25444780  0.50000000  0.61788516  1
