# generated using pymatgen
data_GaHF4
_symmetry_space_group_name_H-M   P2/c
_cell_length_a   6.57440087
_cell_length_b   5.21365698
_cell_length_c   11.03028858
_cell_angle_alpha   90.00000000
_cell_angle_beta   121.84625472
_cell_angle_gamma   90.00000000
_symmetry_Int_Tables_number   13
_chemical_formula_structural   GaHF4
_chemical_formula_sum   'Ga4 H4 F16'
_cell_volume   321.16782143
_cell_formula_units_Z   4
loop_
 _symmetry_equiv_pos_site_id
 _symmetry_equiv_pos_as_xyz
  1  'x, y, z'
  2  '-x, -y, -z'
  3  '-x, y, -z+1/2'
  4  'x, -y, z+1/2'
loop_
 _atom_site_type_symbol
 _atom_site_label
 _atom_site_symmetry_multiplicity
 _atom_site_fract_x
 _atom_site_fract_y
 _atom_site_fract_z
 _atom_site_occupancy
  Ga  Ga0  4  0.11732356  0.24945729  0.00114728  1
  H  H1  2  0.00000000  0.38054300  0.75000000  1
  H  H2  2  0.50000000  0.12602538  0.25000000  1
  F  F3  4  0.00659465  0.06546178  0.10934427  1
  F  F4  4  0.17592106  0.37515322  0.86016186  1
  F  F5  4  0.19324053  0.43084243  0.60367474  1
  F  F6  4  0.43476998  0.12809612  0.13012051  1
