# generated using pymatgen
data_GdHF4
_symmetry_space_group_name_H-M   P2/c
_cell_length_a   5.08433822
_cell_length_b   5.56021253
_cell_length_c   5.61419274
_cell_angle_alpha   90.00000000
_cell_angle_beta   110.49416726
_cell_angle_gamma   90.00000000
_symmetry_Int_Tables_number   13
_chemical_formula_structural   GdHF4
_chemical_formula_sum   'Gd2 H2 F8'
_cell_volume   148.66793081
_cell_formula_units_Z   2
loop_
 _symmetry_equiv_pos_site_id
 _symmetry_equiv_pos_as_xyz
  1  'x, y, z'
  2  '-x, -y, -z'
  3  '-x, y, -z+1/2'
  4  'x, -y, z+1/2'
loop_
 _atom_site_type_symbol
 _atom_site_label
 _atom_site_symmetry_multiplicity
 _atom_site_fract_x
 _atom_site_fract_y
 _atom_site_fract_z
 _atom_site_occupancy
  Gd  Gd0  2  0.00000000  0.28519869  0.25000000  1
  H  H1  2  0.50000000  0.07213620  0.75000000  1
  F  F2  4  0.24021607  0.42278114  0.00941078  1
  F  F3  4  0.26284887  0.06079456  0.63706185  1
