# generated using pymatgen
data_GeRhCl4
_symmetry_space_group_name_H-M   P2/c
_cell_length_a   5.92382479
_cell_length_b   7.02833850
_cell_length_c   6.73427978
_cell_angle_alpha   90.00000000
_cell_angle_beta   95.57246893
_cell_angle_gamma   90.00000000
_symmetry_Int_Tables_number   13
_chemical_formula_structural   GeRhCl4
_chemical_formula_sum   'Ge2 Rh2 Cl8'
_cell_volume   279.05432946
_cell_formula_units_Z   2
loop_
 _symmetry_equiv_pos_site_id
 _symmetry_equiv_pos_as_xyz
  1  'x, y, z'
  2  '-x, -y, -z'
  3  '-x, y, -z+1/2'
  4  'x, -y, z+1/2'
loop_
 _atom_site_type_symbol
 _atom_site_label
 _atom_site_symmetry_multiplicity
 _atom_site_fract_x
 _atom_site_fract_y
 _atom_site_fract_z
 _atom_site_occupancy
  Ge  Ge0  2  0.50000000  0.33471515  0.25000000  1
  Rh  Rh1  2  0.00000000  0.13222819  0.75000000  1
  Cl  Cl2  4  0.22348987  0.10522580  0.42268028  1
  Cl  Cl3  4  0.24220779  0.37312187  0.90265308  1
