# generated using pymatgen
data_H2RhF
_symmetry_space_group_name_H-M   C2/c
_cell_length_a   8.71534381
_cell_length_b   4.21560131
_cell_length_c   4.49147370
_cell_angle_alpha   90.00000000
_cell_angle_beta   116.98713755
_cell_angle_gamma   90.00000000
_symmetry_Int_Tables_number   15
_chemical_formula_structural   H2RhF
_chemical_formula_sum   'H8 Rh4 F4'
_cell_volume   147.04946985
_cell_formula_units_Z   4
loop_
 _symmetry_equiv_pos_site_id
 _symmetry_equiv_pos_as_xyz
  1  'x, y, z'
  2  '-x, -y, -z'
  3  '-x, y, -z+1/2'
  4  'x, -y, z+1/2'
  5  'x+1/2, y+1/2, z'
  6  '-x+1/2, -y+1/2, -z'
  7  '-x+1/2, y+1/2, -z+1/2'
  8  'x+1/2, -y+1/2, z+1/2'
loop_
 _atom_site_type_symbol
 _atom_site_label
 _atom_site_symmetry_multiplicity
 _atom_site_fract_x
 _atom_site_fract_y
 _atom_site_fract_z
 _atom_site_occupancy
  H  H0  8  0.19347547  0.10296514  0.29113309  1
  Rh  Rh1  4  0.25000000  0.25000000  0.00000000  1
  F  F2  4  0.00000000  0.37183367  0.75000000  1
