# generated using pymatgen
data_HfOF2
_symmetry_space_group_name_H-M   P-1
_cell_length_a   6.53493715
_cell_length_b   6.85453749
_cell_length_c   8.39157208
_cell_angle_alpha   69.22860320
_cell_angle_beta   67.16933958
_cell_angle_gamma   61.65609805
_symmetry_Int_Tables_number   2
_chemical_formula_structural   HfOF2
_chemical_formula_sum   'Hf4 O4 F8'
_cell_volume   298.10329271
_cell_formula_units_Z   4
loop_
 _symmetry_equiv_pos_site_id
 _symmetry_equiv_pos_as_xyz
  1  'x, y, z'
  2  '-x, -y, -z'
loop_
 _atom_site_type_symbol
 _atom_site_label
 _atom_site_symmetry_multiplicity
 _atom_site_fract_x
 _atom_site_fract_y
 _atom_site_fract_z
 _atom_site_occupancy
  Hf  Hf0  2  0.05812728  0.09178418  0.22362391  1
  Hf  Hf1  2  0.37798509  0.40116487  0.27576460  1
  O  O2  2  0.23744758  0.24514483  0.22618464  1
  O  O3  2  0.28662409  0.74947652  0.72909777  1
  F  F4  2  0.14558312  0.12477132  0.96918821  1
  F  F5  2  0.23139734  0.74603874  0.25234954  1
  F  F6  2  0.24537749  0.36327751  0.53040422  1
  F  F7  1  0.00000000  0.00000000  0.50000000  1
  F  F8  1  0.50000000  0.50000000  0.00000000  1
