# generated using pymatgen
data_HfTe4Ru
_symmetry_space_group_name_H-M   P2/c
_cell_length_a   5.82353648
_cell_length_b   7.97369947
_cell_length_c   6.98874781
_cell_angle_alpha   90.00000000
_cell_angle_beta   90.86830826
_cell_angle_gamma   90.00000000
_symmetry_Int_Tables_number   13
_chemical_formula_structural   HfTe4Ru
_chemical_formula_sum   'Hf2 Te8 Ru2'
_cell_volume   324.48614529
_cell_formula_units_Z   2
loop_
 _symmetry_equiv_pos_site_id
 _symmetry_equiv_pos_as_xyz
  1  'x, y, z'
  2  '-x, -y, -z'
  3  '-x, y, -z+1/2'
  4  'x, -y, z+1/2'
loop_
 _atom_site_type_symbol
 _atom_site_label
 _atom_site_symmetry_multiplicity
 _atom_site_fract_x
 _atom_site_fract_y
 _atom_site_fract_z
 _atom_site_occupancy
  Hf  Hf0  2  0.00000000  0.11411728  0.25000000  1
  Te  Te1  4  0.23814482  0.40152320  0.43465694  1
  Te  Te2  4  0.27849723  0.13063134  0.92805005  1
  Ru  Ru3  2  0.50000000  0.37915917  0.75000000  1
