# generated using pymatgen
data_HfZrS4
_symmetry_space_group_name_H-M   P2/c
_cell_length_a   6.11660828
_cell_length_b   6.74954533
_cell_length_c   6.33865287
_cell_angle_alpha   90.00000000
_cell_angle_beta   98.95836599
_cell_angle_gamma   90.00000000
_symmetry_Int_Tables_number   13
_chemical_formula_structural   HfZrS4
_chemical_formula_sum   'Hf2 Zr2 S8'
_cell_volume   258.49488143
_cell_formula_units_Z   2
loop_
 _symmetry_equiv_pos_site_id
 _symmetry_equiv_pos_as_xyz
  1  'x, y, z'
  2  '-x, -y, -z'
  3  '-x, y, -z+1/2'
  4  'x, -y, z+1/2'
loop_
 _atom_site_type_symbol
 _atom_site_label
 _atom_site_symmetry_multiplicity
 _atom_site_fract_x
 _atom_site_fract_y
 _atom_site_fract_z
 _atom_site_occupancy
  Hf  Hf0  2  0.00000000  0.15963824  0.75000000  1
  Zr  Zr1  2  0.50000000  0.29140613  0.25000000  1
  S  S2  4  0.24775352  0.08990243  0.47513911  1
  S  S3  4  0.26986320  0.41846286  0.90742953  1
