# generated using pymatgen
data_HgPdS2
_symmetry_space_group_name_H-M   P2/m
_cell_length_a   6.98154260
_cell_length_b   3.63599920
_cell_length_c   7.25116295
_cell_angle_alpha   90.00000000
_cell_angle_beta   110.55418404
_cell_angle_gamma   90.00000000
_symmetry_Int_Tables_number   10
_chemical_formula_structural   HgPdS2
_chemical_formula_sum   'Hg2 Pd2 S4'
_cell_volume   172.35214106
_cell_formula_units_Z   2
loop_
 _symmetry_equiv_pos_site_id
 _symmetry_equiv_pos_as_xyz
  1  'x, y, z'
  2  '-x, -y, -z'
  3  '-x, y, -z'
  4  'x, -y, z'
loop_
 _atom_site_type_symbol
 _atom_site_label
 _atom_site_symmetry_multiplicity
 _atom_site_fract_x
 _atom_site_fract_y
 _atom_site_fract_z
 _atom_site_occupancy
  Hg  Hg0  1  0.50000000  0.00000000  0.00000000  1
  Hg  Hg1  1  0.50000000  0.00000000  0.50000000  1
  Pd  Pd2  1  0.00000000  0.00000000  0.50000000  1
  Pd  Pd3  1  0.00000000  0.50000000  0.00000000  1
  S  S4  2  0.12542189  0.50000000  0.72067354  1
  S  S5  2  0.24233891  0.00000000  0.15557648  1
