# generated using pymatgen
data_InAgBr4
_symmetry_space_group_name_H-M   P2/c
_cell_length_a   6.95738278
_cell_length_b   8.50693413
_cell_length_c   6.96886082
_cell_angle_alpha   90.00000000
_cell_angle_beta   104.73600205
_cell_angle_gamma   90.00000000
_symmetry_Int_Tables_number   13
_chemical_formula_structural   InAgBr4
_chemical_formula_sum   'In2 Ag2 Br8'
_cell_volume   398.89242125
_cell_formula_units_Z   2
loop_
 _symmetry_equiv_pos_site_id
 _symmetry_equiv_pos_as_xyz
  1  'x, y, z'
  2  '-x, -y, -z'
  3  '-x, y, -z+1/2'
  4  'x, -y, z+1/2'
loop_
 _atom_site_type_symbol
 _atom_site_label
 _atom_site_symmetry_multiplicity
 _atom_site_fract_x
 _atom_site_fract_y
 _atom_site_fract_z
 _atom_site_occupancy
  In  In0  2  0.50000000  0.36887836  0.75000000  1
  Ag  Ag1  2  0.00000000  0.21887177  0.25000000  1
  Br  Br2  4  0.26075468  0.13968040  0.56533304  1
  Br  Br3  4  0.27191777  0.40001886  0.02270147  1
