# generated using pymatgen
data_InHBr4
_symmetry_space_group_name_H-M   P-1
_cell_length_a   6.57235470
_cell_length_b   6.88005083
_cell_length_c   8.82927935
_cell_angle_alpha   90.95596199
_cell_angle_beta   93.29626611
_cell_angle_gamma   99.03141092
_symmetry_Int_Tables_number   2
_chemical_formula_structural   InHBr4
_chemical_formula_sum   'In2 H2 Br8'
_cell_volume   393.50770751
_cell_formula_units_Z   2
loop_
 _symmetry_equiv_pos_site_id
 _symmetry_equiv_pos_as_xyz
  1  'x, y, z'
  2  '-x, -y, -z'
loop_
 _atom_site_type_symbol
 _atom_site_label
 _atom_site_symmetry_multiplicity
 _atom_site_fract_x
 _atom_site_fract_y
 _atom_site_fract_z
 _atom_site_occupancy
  In  In0  2  0.48287243  0.75451278  0.61209218  1
  H  H1  2  0.02909362  0.27031401  0.18173895  1
  Br  Br2  2  0.25137625  0.37081149  0.14891282  1
  Br  Br3  2  0.25723878  0.86395854  0.82597176  1
  Br  Br4  2  0.26128425  0.89795507  0.37869290  1
  Br  Br5  2  0.26888991  0.38746935  0.59162318  1
