# generated using pymatgen
data_InHF2
_symmetry_space_group_name_H-M   C2/c
_cell_length_a   6.80843953
_cell_length_b   9.59991352
_cell_length_c   7.83175770
_cell_angle_alpha   90.00000000
_cell_angle_beta   92.31413435
_cell_angle_gamma   90.00000000
_symmetry_Int_Tables_number   15
_chemical_formula_structural   InHF2
_chemical_formula_sum   'In8 H8 F16'
_cell_volume   511.46959401
_cell_formula_units_Z   8
loop_
 _symmetry_equiv_pos_site_id
 _symmetry_equiv_pos_as_xyz
  1  'x, y, z'
  2  '-x, -y, -z'
  3  '-x, y, -z+1/2'
  4  'x, -y, z+1/2'
  5  'x+1/2, y+1/2, z'
  6  '-x+1/2, -y+1/2, -z'
  7  '-x+1/2, y+1/2, -z+1/2'
  8  'x+1/2, -y+1/2, z+1/2'
loop_
 _atom_site_type_symbol
 _atom_site_label
 _atom_site_symmetry_multiplicity
 _atom_site_fract_x
 _atom_site_fract_y
 _atom_site_fract_z
 _atom_site_occupancy
  In  In0  8  0.21324871  0.08778544  0.90373185  1
  H  H1  8  0.08918728  0.49213187  0.64543406  1
  F  F2  8  0.09552845  0.08958368  0.60557127  1
  F  F3  8  0.23336214  0.19388735  0.14799063  1
