# generated using pymatgen
data_InTe4W
_symmetry_space_group_name_H-M   P2/c
_cell_length_a   6.31821430
_cell_length_b   8.54215477
_cell_length_c   7.03409487
_cell_angle_alpha   90.00000000
_cell_angle_beta   91.30283458
_cell_angle_gamma   90.00000000
_symmetry_Int_Tables_number   13
_chemical_formula_structural   InTe4W
_chemical_formula_sum   'In2 Te8 W2'
_cell_volume   379.54014919
_cell_formula_units_Z   2
loop_
 _symmetry_equiv_pos_site_id
 _symmetry_equiv_pos_as_xyz
  1  'x, y, z'
  2  '-x, -y, -z'
  3  '-x, y, -z+1/2'
  4  'x, -y, z+1/2'
loop_
 _atom_site_type_symbol
 _atom_site_label
 _atom_site_symmetry_multiplicity
 _atom_site_fract_x
 _atom_site_fract_y
 _atom_site_fract_z
 _atom_site_occupancy
  In  In0  2  0.00000000  0.18280027  0.25000000  1
  Te  Te1  4  0.24477404  0.12538578  0.61325700  1
  Te  Te2  4  0.27019805  0.42158044  0.05699615  1
  W  W3  2  0.50000000  0.34059967  0.75000000  1
