# generated using pymatgen
data_Ir5CO8
_symmetry_space_group_name_H-M   C2/m
_cell_length_a   14.26161990
_cell_length_b   3.16712659
_cell_length_c   9.54916013
_cell_angle_alpha   90.00000000
_cell_angle_beta   132.03824137
_cell_angle_gamma   90.00000000
_symmetry_Int_Tables_number   12
_chemical_formula_structural   Ir5CO8
_chemical_formula_sum   'Ir10 C2 O16'
_cell_volume   320.34042207
_cell_formula_units_Z   2
loop_
 _symmetry_equiv_pos_site_id
 _symmetry_equiv_pos_as_xyz
  1  'x, y, z'
  2  '-x, -y, -z'
  3  '-x, y, -z'
  4  'x, -y, z'
  5  'x+1/2, y+1/2, z'
  6  '-x+1/2, -y+1/2, -z'
  7  '-x+1/2, y+1/2, -z'
  8  'x+1/2, -y+1/2, z'
loop_
 _atom_site_type_symbol
 _atom_site_label
 _atom_site_symmetry_multiplicity
 _atom_site_fract_x
 _atom_site_fract_y
 _atom_site_fract_z
 _atom_site_occupancy
  Ir  Ir0  4  0.03230276  0.50000000  0.37015835  1
  Ir  Ir1  4  0.19217239  0.00000000  0.67902346  1
  Ir  Ir2  2  0.00000000  0.00000000  0.00000000  1
  C  C3  2  0.00000000  0.00000000  0.50000000  1
  O  O4  4  0.00896940  0.00000000  0.21690340  1
  O  O5  4  0.11834923  0.50000000  0.10456719  1
  O  O6  4  0.16795420  0.50000000  0.78998945  1
  O  O7  4  0.22031423  0.50000000  0.57269075  1
