# generated using pymatgen
data_K2HF
_symmetry_space_group_name_H-M   C2/c
_cell_length_a   7.26068263
_cell_length_b   7.47887474
_cell_length_c   7.18229969
_cell_angle_alpha   90.00000000
_cell_angle_beta   113.48412296
_cell_angle_gamma   90.00000000
_symmetry_Int_Tables_number   15
_chemical_formula_structural   K2HF
_chemical_formula_sum   'K8 H4 F4'
_cell_volume   357.70691057
_cell_formula_units_Z   4
loop_
 _symmetry_equiv_pos_site_id
 _symmetry_equiv_pos_as_xyz
  1  'x, y, z'
  2  '-x, -y, -z'
  3  '-x, y, -z+1/2'
  4  'x, -y, z+1/2'
  5  'x+1/2, y+1/2, z'
  6  '-x+1/2, -y+1/2, -z'
  7  '-x+1/2, y+1/2, -z+1/2'
  8  'x+1/2, -y+1/2, z+1/2'
loop_
 _atom_site_type_symbol
 _atom_site_label
 _atom_site_symmetry_multiplicity
 _atom_site_fract_x
 _atom_site_fract_y
 _atom_site_fract_z
 _atom_site_occupancy
  K  K0  8  0.22836686  0.12616046  0.66925843  1
  H  H1  4  0.00000000  0.50000000  0.00000000  1
  F  F2  4  0.00000000  0.10285275  0.25000000  1
