# generated using pymatgen
data_KBi5S8
_symmetry_space_group_name_H-M   C2/m
_cell_length_a   21.10802954
_cell_length_b   4.07733232
_cell_length_c   9.92159317
_cell_angle_alpha   90.00000000
_cell_angle_beta   104.56753521
_cell_angle_gamma   90.00000000
_symmetry_Int_Tables_number   12
_chemical_formula_structural   KBi5S8
_chemical_formula_sum   'K2 Bi10 S16'
_cell_volume   826.44527052
_cell_formula_units_Z   2
loop_
 _symmetry_equiv_pos_site_id
 _symmetry_equiv_pos_as_xyz
  1  'x, y, z'
  2  '-x, -y, -z'
  3  '-x, y, -z'
  4  'x, -y, z'
  5  'x+1/2, y+1/2, z'
  6  '-x+1/2, -y+1/2, -z'
  7  '-x+1/2, y+1/2, -z'
  8  'x+1/2, -y+1/2, z'
loop_
 _atom_site_type_symbol
 _atom_site_label
 _atom_site_symmetry_multiplicity
 _atom_site_fract_x
 _atom_site_fract_y
 _atom_site_fract_z
 _atom_site_occupancy
  K  K0  2  0.00000000  0.50000000  0.50000000  1
  Bi  Bi1  4  0.15350599  0.50000000  0.94729062  1
  Bi  Bi2  4  0.20390195  0.50000000  0.33953875  1
  Bi  Bi3  2  0.00000000  0.00000000  0.00000000  1
  S  S4  4  0.07630352  0.00000000  0.79819815  1
  S  S5  4  0.07847863  0.50000000  0.14828405  1
  S  S6  4  0.16759702  0.00000000  0.49249860  1
  S  S7  4  0.22750844  0.00000000  0.14258775  1
