# generated using pymatgen
data_KBiSe2
_symmetry_space_group_name_H-M   C2/c
_cell_length_a   9.09150690
_cell_length_b   9.67399442
_cell_length_c   7.52149248
_cell_angle_alpha   90.00000000
_cell_angle_beta   121.53269728
_cell_angle_gamma   90.00000000
_symmetry_Int_Tables_number   15
_chemical_formula_structural   KBiSe2
_chemical_formula_sum   'K4 Bi4 Se8'
_cell_volume   563.84475241
_cell_formula_units_Z   4
loop_
 _symmetry_equiv_pos_site_id
 _symmetry_equiv_pos_as_xyz
  1  'x, y, z'
  2  '-x, -y, -z'
  3  '-x, y, -z+1/2'
  4  'x, -y, z+1/2'
  5  'x+1/2, y+1/2, z'
  6  '-x+1/2, -y+1/2, -z'
  7  '-x+1/2, y+1/2, -z+1/2'
  8  'x+1/2, -y+1/2, z+1/2'
loop_
 _atom_site_type_symbol
 _atom_site_label
 _atom_site_symmetry_multiplicity
 _atom_site_fract_x
 _atom_site_fract_y
 _atom_site_fract_z
 _atom_site_occupancy
  K  K0  4  0.00000000  0.36265030  0.75000000  1
  Bi  Bi1  4  0.00000000  0.07993003  0.25000000  1
  Se  Se2  8  0.21707708  0.09567396  0.71615083  1
