# generated using pymatgen
data_KIn5S8
_symmetry_space_group_name_H-M   C2/m
_cell_length_a   19.28007441
_cell_length_b   3.91091668
_cell_length_c   9.42338718
_cell_angle_alpha   90.00000000
_cell_angle_beta   102.90106518
_cell_angle_gamma   90.00000000
_symmetry_Int_Tables_number   12
_chemical_formula_structural   KIn5S8
_chemical_formula_sum   'K2 In10 S16'
_cell_volume   692.61307589
_cell_formula_units_Z   2
loop_
 _symmetry_equiv_pos_site_id
 _symmetry_equiv_pos_as_xyz
  1  'x, y, z'
  2  '-x, -y, -z'
  3  '-x, y, -z'
  4  'x, -y, z'
  5  'x+1/2, y+1/2, z'
  6  '-x+1/2, -y+1/2, -z'
  7  '-x+1/2, y+1/2, -z'
  8  'x+1/2, -y+1/2, z'
loop_
 _atom_site_type_symbol
 _atom_site_label
 _atom_site_symmetry_multiplicity
 _atom_site_fract_x
 _atom_site_fract_y
 _atom_site_fract_z
 _atom_site_occupancy
  K  K0  2  0.00000000  0.50000000  0.50000000  1
  In  In1  4  0.14327335  0.50000000  0.90315219  1
  In  In2  4  0.21527487  0.50000000  0.33788882  1
  In  In3  2  0.00000000  0.00000000  0.00000000  1
  S  S4  4  0.06713182  0.00000000  0.78074286  1
  S  S5  4  0.08654258  0.50000000  0.11990568  1
  S  S6  4  0.16463570  0.00000000  0.47121635  1
  S  S7  4  0.23921875  0.00000000  0.15550765  1
