# generated using pymatgen
data_KSmI4
_symmetry_space_group_name_H-M   P2/c
_cell_length_a   8.84295026
_cell_length_b   7.87453291
_cell_length_c   7.61632627
_cell_angle_alpha   90.00000000
_cell_angle_beta   96.39541724
_cell_angle_gamma   90.00000000
_symmetry_Int_Tables_number   13
_chemical_formula_structural   KSmI4
_chemical_formula_sum   'K2 Sm2 I8'
_cell_volume   527.05555243
_cell_formula_units_Z   2
loop_
 _symmetry_equiv_pos_site_id
 _symmetry_equiv_pos_as_xyz
  1  'x, y, z'
  2  '-x, -y, -z'
  3  '-x, y, -z+1/2'
  4  'x, -y, z+1/2'
loop_
 _atom_site_type_symbol
 _atom_site_label
 _atom_site_symmetry_multiplicity
 _atom_site_fract_x
 _atom_site_fract_y
 _atom_site_fract_z
 _atom_site_occupancy
  K  K0  2  0.50000000  0.31570618  0.25000000  1
  Sm  Sm1  2  0.00000000  0.23887168  0.75000000  1
  I  I2  4  0.19863505  0.06841455  0.07488684  1
  I  I3  4  0.20552227  0.43097475  0.49412113  1
