# generated using pymatgen
data_KSmS2
_symmetry_space_group_name_H-M   C2/c
_cell_length_a   7.97399662
_cell_length_b   7.89604918
_cell_length_c   7.93449450
_cell_angle_alpha   90.00000000
_cell_angle_beta   115.16289195
_cell_angle_gamma   90.00000000
_symmetry_Int_Tables_number   15
_chemical_formula_structural   KSmS2
_chemical_formula_sum   'K4 Sm4 S8'
_cell_volume   452.17128411
_cell_formula_units_Z   4
loop_
 _symmetry_equiv_pos_site_id
 _symmetry_equiv_pos_as_xyz
  1  'x, y, z'
  2  '-x, -y, -z'
  3  '-x, y, -z+1/2'
  4  'x, -y, z+1/2'
  5  'x+1/2, y+1/2, z'
  6  '-x+1/2, -y+1/2, -z'
  7  '-x+1/2, y+1/2, -z+1/2'
  8  'x+1/2, -y+1/2, z+1/2'
loop_
 _atom_site_type_symbol
 _atom_site_label
 _atom_site_symmetry_multiplicity
 _atom_site_fract_x
 _atom_site_fract_y
 _atom_site_fract_z
 _atom_site_occupancy
  K  K0  4  0.00000000  0.50000000  0.00000000  1
  Sm  Sm1  4  0.00000000  0.09635592  0.75000000  1
  S  S2  8  0.19558395  0.13514684  0.14717396  1
