# generated using pymatgen
data_KTlO2
_symmetry_space_group_name_H-M   C2/c
_cell_length_a   9.86318315
_cell_length_b   9.86369598
_cell_length_c   13.17789844
_cell_angle_alpha   90.00000000
_cell_angle_beta   100.90478125
_cell_angle_gamma   90.00000000
_symmetry_Int_Tables_number   15
_chemical_formula_structural   KTlO2
_chemical_formula_sum   'K16 Tl16 O32'
_cell_volume   1258.89404438
_cell_formula_units_Z   16
loop_
 _symmetry_equiv_pos_site_id
 _symmetry_equiv_pos_as_xyz
  1  'x, y, z'
  2  '-x, -y, -z'
  3  '-x, y, -z+1/2'
  4  'x, -y, z+1/2'
  5  'x+1/2, y+1/2, z'
  6  '-x+1/2, -y+1/2, -z'
  7  '-x+1/2, y+1/2, -z+1/2'
  8  'x+1/2, -y+1/2, z+1/2'
loop_
 _atom_site_type_symbol
 _atom_site_label
 _atom_site_symmetry_multiplicity
 _atom_site_fract_x
 _atom_site_fract_y
 _atom_site_fract_z
 _atom_site_occupancy
  K  K0  8  0.03305238  0.18941925  0.37616613  1
  K  K1  8  0.21627686  0.43861492  0.11737929  1
  Tl  Tl2  8  0.09806610  0.18700327  0.64676089  1
  Tl  Tl3  8  0.15079786  0.43611427  0.85221447  1
  O  O4  8  0.05107791  0.31295127  0.95487354  1
  O  O5  8  0.19987243  0.06307555  0.54678609  1
  O  O6  8  0.24762174  0.18879195  0.25011790  1
  O  O7  4  0.00000000  0.05939192  0.75000000  1
  O  O8  4  0.00000000  0.43586676  0.25000000  1
