# generated using pymatgen
data_KVI4
_symmetry_space_group_name_H-M   P2/c
_cell_length_a   9.66386176
_cell_length_b   8.39163475
_cell_length_c   14.75395194
_cell_angle_alpha   90.00000000
_cell_angle_beta   103.65440060
_cell_angle_gamma   90.00000000
_symmetry_Int_Tables_number   13
_chemical_formula_structural   KVI4
_chemical_formula_sum   'K4 V4 I16'
_cell_volume   1162.66478882
_cell_formula_units_Z   4
loop_
 _symmetry_equiv_pos_site_id
 _symmetry_equiv_pos_as_xyz
  1  'x, y, z'
  2  '-x, -y, -z'
  3  '-x, y, -z+1/2'
  4  'x, -y, z+1/2'
loop_
 _atom_site_type_symbol
 _atom_site_label
 _atom_site_symmetry_multiplicity
 _atom_site_fract_x
 _atom_site_fract_y
 _atom_site_fract_z
 _atom_site_occupancy
  K  K0  2  0.00000000  0.09890280  0.75000000  1
  K  K1  2  0.50000000  0.37028997  0.25000000  1
  V  V2  4  0.28928358  0.21501778  0.54936643  1
  I  I3  4  0.15091778  0.41736196  0.62854202  1
  I  I4  4  0.21139753  0.24301677  0.36842042  1
  I  I5  4  0.22639548  0.06870823  0.09811107  1
  I  I6  4  0.44288179  0.27613942  0.89347783  1
