# generated using pymatgen
data_LaBr2F
_symmetry_space_group_name_H-M   P2/m
_cell_length_a   8.67128252
_cell_length_b   3.83255286
_cell_length_c   10.90424917
_cell_angle_alpha   90.00000000
_cell_angle_beta   106.45402730
_cell_angle_gamma   90.00000000
_symmetry_Int_Tables_number   10
_chemical_formula_structural   LaBr2F
_chemical_formula_sum   'La2 Br4 F2'
_cell_volume   347.54199463
_cell_formula_units_Z   2
loop_
 _symmetry_equiv_pos_site_id
 _symmetry_equiv_pos_as_xyz
  1  'x, y, z'
  2  '-x, -y, -z'
  3  '-x, y, -z'
  4  'x, -y, z'
loop_
 _atom_site_type_symbol
 _atom_site_label
 _atom_site_symmetry_multiplicity
 _atom_site_fract_x
 _atom_site_fract_y
 _atom_site_fract_z
 _atom_site_occupancy
  La  La0  2  0.21915523  0.00000000  0.29476786  1
  Br  Br1  2  0.04588528  0.50000000  0.82023849  1
  Br  Br2  2  0.26009109  0.50000000  0.51268419  1
  F  F3  2  0.33819431  0.50000000  0.23958160  1
