# generated using pymatgen
data_Li5TlF8
_symmetry_space_group_name_H-M   C2/m
_cell_length_a   14.37848382
_cell_length_b   3.01045010
_cell_length_c   7.76203510
_cell_angle_alpha   90.00000000
_cell_angle_beta   114.93856178
_cell_angle_gamma   90.00000000
_symmetry_Int_Tables_number   12
_chemical_formula_structural   Li5TlF8
_chemical_formula_sum   'Li10 Tl2 F16'
_cell_volume   304.65807407
_cell_formula_units_Z   2
loop_
 _symmetry_equiv_pos_site_id
 _symmetry_equiv_pos_as_xyz
  1  'x, y, z'
  2  '-x, -y, -z'
  3  '-x, y, -z'
  4  'x, -y, z'
  5  'x+1/2, y+1/2, z'
  6  '-x+1/2, -y+1/2, -z'
  7  '-x+1/2, y+1/2, -z'
  8  'x+1/2, -y+1/2, z'
loop_
 _atom_site_type_symbol
 _atom_site_label
 _atom_site_symmetry_multiplicity
 _atom_site_fract_x
 _atom_site_fract_y
 _atom_site_fract_z
 _atom_site_occupancy
  Li  Li0  4  0.15371915  0.00000000  0.94946468  1
  Li  Li1  4  0.23429602  0.00000000  0.27850951  1
  Li  Li2  2  0.00000000  0.50000000  0.00000000  1
  Tl  Tl3  2  0.00000000  0.00000000  0.50000000  1
  F  F4  4  0.05867865  0.50000000  0.76338092  1
  F  F5  4  0.09485156  0.00000000  0.11972271  1
  F  F6  4  0.12364028  0.50000000  0.50201213  1
  F  F7  4  0.24413906  0.00000000  0.84108918  1
