# generated using pymatgen
data_LiDyH4
_symmetry_space_group_name_H-M   P2/c
_cell_length_a   4.87488096
_cell_length_b   5.15485441
_cell_length_c   5.15973480
_cell_angle_alpha   90.00000000
_cell_angle_beta   95.73206790
_cell_angle_gamma   90.00000000
_symmetry_Int_Tables_number   13
_chemical_formula_structural   LiDyH4
_chemical_formula_sum   'Li2 Dy2 H8'
_cell_volume   129.01220671
_cell_formula_units_Z   2
loop_
 _symmetry_equiv_pos_site_id
 _symmetry_equiv_pos_as_xyz
  1  'x, y, z'
  2  '-x, -y, -z'
  3  '-x, y, -z+1/2'
  4  'x, -y, z+1/2'
loop_
 _atom_site_type_symbol
 _atom_site_label
 _atom_site_symmetry_multiplicity
 _atom_site_fract_x
 _atom_site_fract_y
 _atom_site_fract_z
 _atom_site_occupancy
  Li  Li0  2  0.50000000  0.29281294  0.75000000  1
  Dy  Dy1  2  0.00000000  0.24648603  0.25000000  1
  H  H2  4  0.23036139  0.06888761  0.58881483  1
  H  H3  4  0.24522430  0.44885916  0.97458304  1
