# generated using pymatgen
data_LiDySe2
_symmetry_space_group_name_H-M   P2/m
_cell_length_a   6.92765699
_cell_length_b   4.09889497
_cell_length_c   7.12936370
_cell_angle_alpha   90.00000000
_cell_angle_beta   93.88501177
_cell_angle_gamma   90.00000000
_symmetry_Int_Tables_number   10
_chemical_formula_structural   LiDySe2
_chemical_formula_sum   'Li2 Dy2 Se4'
_cell_volume   201.97833889
_cell_formula_units_Z   2
loop_
 _symmetry_equiv_pos_site_id
 _symmetry_equiv_pos_as_xyz
  1  'x, y, z'
  2  '-x, -y, -z'
  3  '-x, y, -z'
  4  'x, -y, z'
loop_
 _atom_site_type_symbol
 _atom_site_label
 _atom_site_symmetry_multiplicity
 _atom_site_fract_x
 _atom_site_fract_y
 _atom_site_fract_z
 _atom_site_occupancy
  Li  Li0  2  0.40355140  0.50000000  0.19724119  1
  Dy  Dy1  1  0.00000000  0.00000000  0.00000000  1
  Dy  Dy2  1  0.00000000  0.50000000  0.50000000  1
  Se  Se3  2  0.23460061  0.50000000  0.85104090  1
  Se  Se4  2  0.23494888  0.00000000  0.34811446  1
