# generated using pymatgen
data_LiOsS2
_symmetry_space_group_name_H-M   P2/m
_cell_length_a   6.58714042
_cell_length_b   3.76815255
_cell_length_c   7.82559222
_cell_angle_alpha   90.00000000
_cell_angle_beta   106.62796331
_cell_angle_gamma   90.00000000
_symmetry_Int_Tables_number   10
_chemical_formula_structural   LiOsS2
_chemical_formula_sum   'Li2 Os2 S4'
_cell_volume   186.11916138
_cell_formula_units_Z   2
loop_
 _symmetry_equiv_pos_site_id
 _symmetry_equiv_pos_as_xyz
  1  'x, y, z'
  2  '-x, -y, -z'
  3  '-x, y, -z'
  4  'x, -y, z'
loop_
 _atom_site_type_symbol
 _atom_site_label
 _atom_site_symmetry_multiplicity
 _atom_site_fract_x
 _atom_site_fract_y
 _atom_site_fract_z
 _atom_site_occupancy
  Li  Li0  1  0.00000000  0.50000000  0.00000000  1
  Li  Li1  1  0.00000000  0.50000000  0.50000000  1
  Os  Os2  2  0.40929526  0.00000000  0.29607659  1
  S  S3  2  0.24848500  0.00000000  0.52069631  1
  S  S4  2  0.35946961  0.50000000  0.14281045  1
