# generated using pymatgen
data_LiScTe2
_symmetry_space_group_name_H-M   P-1
_cell_length_a   7.26211815
_cell_length_b   8.30735952
_cell_length_c   8.30953929
_cell_angle_alpha   60.99285250
_cell_angle_beta   88.32207669
_cell_angle_gamma   87.80363951
_symmetry_Int_Tables_number   2
_chemical_formula_structural   LiScTe2
_chemical_formula_sum   'Li4 Sc4 Te8'
_cell_volume   438.06724259
_cell_formula_units_Z   4
loop_
 _symmetry_equiv_pos_site_id
 _symmetry_equiv_pos_as_xyz
  1  'x, y, z'
  2  '-x, -y, -z'
loop_
 _atom_site_type_symbol
 _atom_site_label
 _atom_site_symmetry_multiplicity
 _atom_site_fract_x
 _atom_site_fract_y
 _atom_site_fract_z
 _atom_site_occupancy
  Li  Li0  2  0.23536917  0.57253149  0.93369770  1
  Li  Li1  2  0.40635341  0.82701088  0.55659829  1
  Sc  Sc2  2  0.24216788  0.37307276  0.62242261  1
  Sc  Sc3  2  0.24335312  0.87578123  0.13748261  1
  Te  Te4  2  0.07095771  0.74066697  0.50241865  1
  Te  Te5  2  0.07230809  0.24215124  0.99077903  1
  Te  Te6  2  0.41795284  0.99780006  0.76959190  1
  Te  Te7  2  0.42906387  0.51179196  0.25532970  1
