# generated using pymatgen
data_LiTlF2
_symmetry_space_group_name_H-M   C2/c
_cell_length_a   5.90779969
_cell_length_b   11.16814712
_cell_length_c   7.91477891
_cell_angle_alpha   90.00000000
_cell_angle_beta   96.43948199
_cell_angle_gamma   90.00000000
_symmetry_Int_Tables_number   15
_chemical_formula_structural   LiTlF2
_chemical_formula_sum   'Li8 Tl8 F16'
_cell_volume   518.91589773
_cell_formula_units_Z   8
loop_
 _symmetry_equiv_pos_site_id
 _symmetry_equiv_pos_as_xyz
  1  'x, y, z'
  2  '-x, -y, -z'
  3  '-x, y, -z+1/2'
  4  'x, -y, z+1/2'
  5  'x+1/2, y+1/2, z'
  6  '-x+1/2, -y+1/2, -z'
  7  '-x+1/2, y+1/2, -z+1/2'
  8  'x+1/2, -y+1/2, z+1/2'
loop_
 _atom_site_type_symbol
 _atom_site_label
 _atom_site_symmetry_multiplicity
 _atom_site_fract_x
 _atom_site_fract_y
 _atom_site_fract_z
 _atom_site_occupancy
  Li  Li0  8  0.24315178  0.30201137  0.35798322  1
  Tl  Tl1  8  0.23906219  0.41014290  0.93373989  1
  F  F2  8  0.19657280  0.13844941  0.41711566  1
  F  F3  4  0.00000000  0.18569285  0.75000000  1
  F  F4  4  0.00000000  0.38826057  0.25000000  1
