# generated using pymatgen
data_LiYS2
_symmetry_space_group_name_H-M   C2/c
_cell_length_a   7.65815328
_cell_length_b   15.49856651
_cell_length_c   6.69187836
_cell_angle_alpha   90.00000000
_cell_angle_beta   124.17303297
_cell_angle_gamma   90.00000000
_symmetry_Int_Tables_number   15
_chemical_formula_structural   LiYS2
_chemical_formula_sum   'Li8 Y8 S16'
_cell_volume   657.12847858
_cell_formula_units_Z   8
loop_
 _symmetry_equiv_pos_site_id
 _symmetry_equiv_pos_as_xyz
  1  'x, y, z'
  2  '-x, -y, -z'
  3  '-x, y, -z+1/2'
  4  'x, -y, z+1/2'
  5  'x+1/2, y+1/2, z'
  6  '-x+1/2, -y+1/2, -z'
  7  '-x+1/2, y+1/2, -z+1/2'
  8  'x+1/2, -y+1/2, z+1/2'
loop_
 _atom_site_type_symbol
 _atom_site_label
 _atom_site_symmetry_multiplicity
 _atom_site_fract_x
 _atom_site_fract_y
 _atom_site_fract_z
 _atom_site_occupancy
  Li  Li0  4  0.00000000  0.18829113  0.75000000  1
  Li  Li1  4  0.00000000  0.43718071  0.75000000  1
  Y  Y2  4  0.00000000  0.06231681  0.25000000  1
  Y  Y3  4  0.00000000  0.31383651  0.25000000  1
  S  S4  8  0.24554930  0.06271026  0.74216946  1
  S  S5  8  0.24603824  0.31254827  0.74361239  1
