# generated using pymatgen
data_LuH2Cl
_symmetry_space_group_name_H-M   P2/m
_cell_length_a   7.83950961
_cell_length_b   3.21935752
_cell_length_c   7.99251471
_cell_angle_alpha   90.00000000
_cell_angle_beta   104.59798705
_cell_angle_gamma   90.00000000
_symmetry_Int_Tables_number   10
_chemical_formula_structural   LuH2Cl
_chemical_formula_sum   'Lu2 H4 Cl2'
_cell_volume   195.20474988
_cell_formula_units_Z   2
loop_
 _symmetry_equiv_pos_site_id
 _symmetry_equiv_pos_as_xyz
  1  'x, y, z'
  2  '-x, -y, -z'
  3  '-x, y, -z'
  4  'x, -y, z'
loop_
 _atom_site_type_symbol
 _atom_site_label
 _atom_site_symmetry_multiplicity
 _atom_site_fract_x
 _atom_site_fract_y
 _atom_site_fract_z
 _atom_site_occupancy
  Lu  Lu0  2  0.15950650  0.00000000  0.30793668  1
  H  H1  2  0.00305811  0.50000000  0.18579197  1
  H  H2  2  0.16338197  0.50000000  0.48236200  1
  Cl  Cl3  2  0.38770582  0.50000000  0.23601130  1
