# generated using pymatgen
data_LuSbTe4
_symmetry_space_group_name_H-M   P2/c
_cell_length_a   6.58252625
_cell_length_b   8.33524100
_cell_length_c   7.76494580
_cell_angle_alpha   90.00000000
_cell_angle_beta   92.68944358
_cell_angle_gamma   90.00000000
_symmetry_Int_Tables_number   13
_chemical_formula_structural   LuSbTe4
_chemical_formula_sum   'Lu2 Sb2 Te8'
_cell_volume   425.56957005
_cell_formula_units_Z   2
loop_
 _symmetry_equiv_pos_site_id
 _symmetry_equiv_pos_as_xyz
  1  'x, y, z'
  2  '-x, -y, -z'
  3  '-x, y, -z+1/2'
  4  'x, -y, z+1/2'
loop_
 _atom_site_type_symbol
 _atom_site_label
 _atom_site_symmetry_multiplicity
 _atom_site_fract_x
 _atom_site_fract_y
 _atom_site_fract_z
 _atom_site_occupancy
  Lu  Lu0  2  0.00000000  0.36136812  0.25000000  1
  Sb  Sb1  2  0.50000000  0.16069069  0.75000000  1
  Te  Te2  4  0.18382126  0.08729091  0.03626385  1
  Te  Te3  4  0.26569827  0.41397910  0.56647431  1
