# generated using pymatgen
data_Mg5TeS8
_symmetry_space_group_name_H-M   C2/m
_cell_length_a   12.64971433
_cell_length_b   7.67948151
_cell_length_c   7.30359649
_cell_angle_alpha   90.00000000
_cell_angle_beta   125.21619521
_cell_angle_gamma   90.00000000
_symmetry_Int_Tables_number   12
_chemical_formula_structural   Mg5TeS8
_chemical_formula_sum   'Mg10 Te2 S16'
_cell_volume   579.64466096
_cell_formula_units_Z   2
loop_
 _symmetry_equiv_pos_site_id
 _symmetry_equiv_pos_as_xyz
  1  'x, y, z'
  2  '-x, -y, -z'
  3  '-x, y, -z'
  4  'x, -y, z'
  5  'x+1/2, y+1/2, z'
  6  '-x+1/2, -y+1/2, -z'
  7  '-x+1/2, y+1/2, -z'
  8  'x+1/2, -y+1/2, z'
loop_
 _atom_site_type_symbol
 _atom_site_label
 _atom_site_symmetry_multiplicity
 _atom_site_fract_x
 _atom_site_fract_y
 _atom_site_fract_z
 _atom_site_occupancy
  Mg  Mg0  4  0.25000000  0.25000000  0.50000000  1
  Mg  Mg1  2  0.00000000  0.00000000  0.00000000  1
  Mg  Mg2  2  0.00000000  0.50000000  0.00000000  1
  Mg  Mg3  2  0.00000000  0.50000000  0.50000000  1
  Te  Te4  2  0.00000000  0.00000000  0.50000000  1
  S  S5  8  0.00271668  0.24885428  0.75374619  1
  S  S6  4  0.24665976  0.50000000  0.26772774  1
  S  S7  4  0.24900615  0.50000000  0.72827159  1
