# generated using pymatgen
data_MgBeSe2
_symmetry_space_group_name_H-M   C2/c
_cell_length_a   8.18368380
_cell_length_b   20.23623335
_cell_length_c   5.68577946
_cell_angle_alpha   90.00000000
_cell_angle_beta   128.06548123
_cell_angle_gamma   90.00000000
_symmetry_Int_Tables_number   15
_chemical_formula_structural   MgBeSe2
_chemical_formula_sum   'Mg8 Be8 Se16'
_cell_volume   741.33146575
_cell_formula_units_Z   8
loop_
 _symmetry_equiv_pos_site_id
 _symmetry_equiv_pos_as_xyz
  1  'x, y, z'
  2  '-x, -y, -z'
  3  '-x, y, -z+1/2'
  4  'x, -y, z+1/2'
  5  'x+1/2, y+1/2, z'
  6  '-x+1/2, -y+1/2, -z'
  7  '-x+1/2, y+1/2, -z+1/2'
  8  'x+1/2, -y+1/2, z+1/2'
loop_
 _atom_site_type_symbol
 _atom_site_label
 _atom_site_symmetry_multiplicity
 _atom_site_fract_x
 _atom_site_fract_y
 _atom_site_fract_z
 _atom_site_occupancy
  Mg  Mg0  4  0.00000000  0.24092168  0.25000000  1
  Mg  Mg1  4  0.00000000  0.37876642  0.75000000  1
  Be  Be2  4  0.00000000  0.00549516  0.25000000  1
  Be  Be3  4  0.00000000  0.12660553  0.75000000  1
  Se  Se4  8  0.18878095  0.06027485  0.15245702  1
  Se  Se5  8  0.24506817  0.18087726  0.74782825  1
