# generated using pymatgen
data_MgCoCl4
_symmetry_space_group_name_H-M   P2
_cell_length_a   5.64431730
_cell_length_b   6.88573313
_cell_length_c   6.31761901
_cell_angle_alpha   90.00000000
_cell_angle_beta   93.30824188
_cell_angle_gamma   90.00000000
_symmetry_Int_Tables_number   3
_chemical_formula_structural   MgCoCl4
_chemical_formula_sum   'Mg2 Co2 Cl8'
_cell_volume   245.12674283
_cell_formula_units_Z   2
loop_
 _symmetry_equiv_pos_site_id
 _symmetry_equiv_pos_as_xyz
  1  'x, y, z'
  2  '-x, y, -z'
loop_
 _atom_site_type_symbol
 _atom_site_label
 _atom_site_symmetry_multiplicity
 _atom_site_fract_x
 _atom_site_fract_y
 _atom_site_fract_z
 _atom_site_occupancy
  Mg  Mg0  1  0.50000000  0.15209214  0.50000000  1
  Mg  Mg1  1  0.50000000  0.85734206  0.00000000  1
  Co  Co2  1  0.00000000  0.36815277  0.00000000  1
  Co  Co3  1  0.00000000  0.62735975  0.50000000  1
  Cl  Cl4  2  0.22367338  0.60503230  0.17082620  1
  Cl  Cl5  2  0.23980003  0.38677130  0.67507736  1
  Cl  Cl6  2  0.24515117  0.12572627  0.15933953  1
  Cl  Cl7  2  0.26235050  0.87998667  0.66236044  1
