# generated using pymatgen
data_MgFeO2
_symmetry_space_group_name_H-M   C2/c
_cell_length_a   5.95324975
_cell_length_b   6.17722413
_cell_length_c   5.14536154
_cell_angle_alpha   90.00000000
_cell_angle_beta   122.84209744
_cell_angle_gamma   90.00000000
_symmetry_Int_Tables_number   15
_chemical_formula_structural   MgFeO2
_chemical_formula_sum   'Mg4 Fe4 O8'
_cell_volume   158.97531027
_cell_formula_units_Z   4
loop_
 _symmetry_equiv_pos_site_id
 _symmetry_equiv_pos_as_xyz
  1  'x, y, z'
  2  '-x, -y, -z'
  3  '-x, y, -z+1/2'
  4  'x, -y, z+1/2'
  5  'x+1/2, y+1/2, z'
  6  '-x+1/2, -y+1/2, -z'
  7  '-x+1/2, y+1/2, -z+1/2'
  8  'x+1/2, -y+1/2, z+1/2'
loop_
 _atom_site_type_symbol
 _atom_site_label
 _atom_site_symmetry_multiplicity
 _atom_site_fract_x
 _atom_site_fract_y
 _atom_site_fract_z
 _atom_site_occupancy
  Mg  Mg0  4  0.00000000  0.37418539  0.75000000  1
  Fe  Fe1  4  0.00000000  0.12372748  0.25000000  1
  O  O2  8  0.24103047  0.37505271  0.23425411  1
