# generated using pymatgen
data_MgNiBr4
_symmetry_space_group_name_H-M   P2/c
_cell_length_a   6.05577537
_cell_length_b   7.47691576
_cell_length_c   6.56672111
_cell_angle_alpha   90.00000000
_cell_angle_beta   91.76307800
_cell_angle_gamma   90.00000000
_symmetry_Int_Tables_number   13
_chemical_formula_structural   MgNiBr4
_chemical_formula_sum   'Mg2 Ni2 Br8'
_cell_volume   297.19066992
_cell_formula_units_Z   2
loop_
 _symmetry_equiv_pos_site_id
 _symmetry_equiv_pos_as_xyz
  1  'x, y, z'
  2  '-x, -y, -z'
  3  '-x, y, -z+1/2'
  4  'x, -y, z+1/2'
loop_
 _atom_site_type_symbol
 _atom_site_label
 _atom_site_symmetry_multiplicity
 _atom_site_fract_x
 _atom_site_fract_y
 _atom_site_fract_z
 _atom_site_occupancy
  Mg  Mg0  2  0.50000000  0.13721302  0.75000000  1
  Ni  Ni1  2  0.00000000  0.37514616  0.25000000  1
  Br  Br2  4  0.23366799  0.39155139  0.93394007  1
  Br  Br3  4  0.25020198  0.12214569  0.41689972  1
