# generated using pymatgen
data_MgRuI4
_symmetry_space_group_name_H-M   P2/c
_cell_length_a   6.53464122
_cell_length_b   8.05039634
_cell_length_c   7.08375374
_cell_angle_alpha   90.00000000
_cell_angle_beta   92.78938312
_cell_angle_gamma   90.00000000
_symmetry_Int_Tables_number   13
_chemical_formula_structural   MgRuI4
_chemical_formula_sum   'Mg2 Ru2 I8'
_cell_volume   372.20962179
_cell_formula_units_Z   2
loop_
 _symmetry_equiv_pos_site_id
 _symmetry_equiv_pos_as_xyz
  1  'x, y, z'
  2  '-x, -y, -z'
  3  '-x, y, -z+1/2'
  4  'x, -y, z+1/2'
loop_
 _atom_site_type_symbol
 _atom_site_label
 _atom_site_symmetry_multiplicity
 _atom_site_fract_x
 _atom_site_fract_y
 _atom_site_fract_z
 _atom_site_occupancy
  Mg  Mg0  2  0.50000000  0.14394402  0.75000000  1
  Ru  Ru1  2  0.00000000  0.37028381  0.25000000  1
  I  I2  4  0.22741977  0.40034683  0.94024924  1
  I  I3  4  0.24342065  0.12375086  0.41631710  1
