# generated using pymatgen
data_MgTe2Pt
_symmetry_space_group_name_H-M   P2/m
_cell_length_a   7.47740862
_cell_length_b   4.01478386
_cell_length_c   8.27625745
_cell_angle_alpha   90.00000000
_cell_angle_beta   111.36128364
_cell_angle_gamma   90.00000000
_symmetry_Int_Tables_number   10
_chemical_formula_structural   MgTe2Pt
_chemical_formula_sum   'Mg2 Te4 Pt2'
_cell_volume   231.38643028
_cell_formula_units_Z   2
loop_
 _symmetry_equiv_pos_site_id
 _symmetry_equiv_pos_as_xyz
  1  'x, y, z'
  2  '-x, -y, -z'
  3  '-x, y, -z'
  4  'x, -y, z'
loop_
 _atom_site_type_symbol
 _atom_site_label
 _atom_site_symmetry_multiplicity
 _atom_site_fract_x
 _atom_site_fract_y
 _atom_site_fract_z
 _atom_site_occupancy
  Mg  Mg0  1  0.00000000  0.00000000  0.50000000  1
  Mg  Mg1  1  0.50000000  0.00000000  0.00000000  1
  Te  Te2  2  0.11025328  0.00000000  0.84737323  1
  Te  Te3  2  0.40366012  0.50000000  0.27062950  1
  Pt  Pt4  1  0.00000000  0.50000000  0.00000000  1
  Pt  Pt5  1  0.50000000  0.00000000  0.50000000  1
