# generated using pymatgen
data_MgTe4Mo
_symmetry_space_group_name_H-M   P2/c
_cell_length_a   5.93204951
_cell_length_b   8.52413432
_cell_length_c   7.02801632
_cell_angle_alpha   90.00000000
_cell_angle_beta   90.64250948
_cell_angle_gamma   90.00000000
_symmetry_Int_Tables_number   13
_chemical_formula_structural   MgTe4Mo
_chemical_formula_sum   'Mg2 Te8 Mo2'
_cell_volume   355.35342495
_cell_formula_units_Z   2
loop_
 _symmetry_equiv_pos_site_id
 _symmetry_equiv_pos_as_xyz
  1  'x, y, z'
  2  '-x, -y, -z'
  3  '-x, y, -z+1/2'
  4  'x, -y, z+1/2'
loop_
 _atom_site_type_symbol
 _atom_site_label
 _atom_site_symmetry_multiplicity
 _atom_site_fract_x
 _atom_site_fract_y
 _atom_site_fract_z
 _atom_site_occupancy
  Mg  Mg0  2  0.50000000  0.16319158  0.75000000  1
  Te  Te1  4  0.24793305  0.41531888  0.56830518  1
  Te  Te2  4  0.27724230  0.13210555  0.12305074  1
  Mo  Mo3  2  0.00000000  0.35556416  0.25000000  1
