# generated using pymatgen
data_MgZnS2
_symmetry_space_group_name_H-M   Pmma
_cell_length_a   3.56486183
_cell_length_b   3.39731462
_cell_length_c   13.04457994
_cell_angle_alpha   90.00000000
_cell_angle_beta   90.00000000
_cell_angle_gamma   90.00000000
_symmetry_Int_Tables_number   51
_chemical_formula_structural   MgZnS2
_chemical_formula_sum   'Mg2 Zn2 S4'
_cell_volume   157.98234947
_cell_formula_units_Z   2
loop_
 _symmetry_equiv_pos_site_id
 _symmetry_equiv_pos_as_xyz
  1  'x, y, z'
  2  '-x, -y, -z'
  3  '-x+1/2, -y, z'
  4  'x+1/2, y, -z'
  5  'x+1/2, -y, -z'
  6  '-x+1/2, y, z'
  7  '-x, y, -z'
  8  'x, -y, z'
loop_
 _atom_site_type_symbol
 _atom_site_label
 _atom_site_symmetry_multiplicity
 _atom_site_fract_x
 _atom_site_fract_y
 _atom_site_fract_z
 _atom_site_occupancy
  Mg  Mg0  2  0.25000000  0.50000000  0.13262816  1
  Zn  Zn1  2  0.25000000  0.50000000  0.62226457  1
  S  S2  2  0.25000000  0.00000000  0.37322078  1
  S  S3  2  0.25000000  0.00000000  0.87653670  1
