# generated using pymatgen
data_MnCuSe2
_symmetry_space_group_name_H-M   P2/m
_cell_length_a   6.44997461
_cell_length_b   3.81081081
_cell_length_c   6.53609298
_cell_angle_alpha   90.00000000
_cell_angle_beta   90.12649934
_cell_angle_gamma   90.00000000
_symmetry_Int_Tables_number   10
_chemical_formula_structural   MnCuSe2
_chemical_formula_sum   'Mn2 Cu2 Se4'
_cell_volume   160.65437502
_cell_formula_units_Z   2
loop_
 _symmetry_equiv_pos_site_id
 _symmetry_equiv_pos_as_xyz
  1  'x, y, z'
  2  '-x, -y, -z'
  3  '-x, y, -z'
  4  'x, -y, z'
loop_
 _atom_site_type_symbol
 _atom_site_label
 _atom_site_symmetry_multiplicity
 _atom_site_fract_x
 _atom_site_fract_y
 _atom_site_fract_z
 _atom_site_occupancy
  Mn  Mn0  1  0.00000000  0.00000000  0.00000000  1
  Mn  Mn1  1  0.00000000  0.50000000  0.50000000  1
  Cu  Cu2  2  0.41836872  0.50000000  0.81677501  1
  Se  Se3  2  0.21607895  0.50000000  0.16563558  1
  Se  Se4  2  0.22728478  0.00000000  0.68049788  1
