# generated using pymatgen
data_MnFeF4
_symmetry_space_group_name_H-M   P2/c
_cell_length_a   4.83429118
_cell_length_b   5.88561680
_cell_length_c   5.46903358
_cell_angle_alpha   90.00000000
_cell_angle_beta   90.42536763
_cell_angle_gamma   90.00000000
_symmetry_Int_Tables_number   13
_chemical_formula_structural   MnFeF4
_chemical_formula_sum   'Mn2 Fe2 F8'
_cell_volume   155.60495032
_cell_formula_units_Z   2
loop_
 _symmetry_equiv_pos_site_id
 _symmetry_equiv_pos_as_xyz
  1  'x, y, z'
  2  '-x, -y, -z'
  3  '-x, y, -z+1/2'
  4  'x, -y, z+1/2'
loop_
 _atom_site_type_symbol
 _atom_site_label
 _atom_site_symmetry_multiplicity
 _atom_site_fract_x
 _atom_site_fract_y
 _atom_site_fract_z
 _atom_site_occupancy
  Mn  Mn0  2  0.50000000  0.16044494  0.75000000  1
  Fe  Fe1  2  0.00000000  0.34692127  0.25000000  1
  F  F2  4  0.22885325  0.39041109  0.92099517  1
  F  F3  4  0.26961258  0.12002012  0.41514482  1
