# generated using pymatgen
data_MnNiS2
_symmetry_space_group_name_H-M   C2/c
_cell_length_a   3.42788044
_cell_length_b   5.94916504
_cell_length_c   11.90131057
_cell_angle_alpha   90.00000000
_cell_angle_beta   91.25163329
_cell_angle_gamma   90.00000000
_symmetry_Int_Tables_number   15
_chemical_formula_structural   MnNiS2
_chemical_formula_sum   'Mn4 Ni4 S8'
_cell_volume   242.64583368
_cell_formula_units_Z   4
loop_
 _symmetry_equiv_pos_site_id
 _symmetry_equiv_pos_as_xyz
  1  'x, y, z'
  2  '-x+347/355, -y, -z'
  3  '-x+347/355, -y, z+1/2'
  4  'x, y, -z+1/2'
  5  '-x+347/355, y, -z+1/2'
  6  'x, -y, z+1/2'
  7  'x, -y, -z'
  8  '-x+347/355, y, z'
  9  'x+1/2, y+1/2, z'
  10  '-x+339/710, -y+1/2, -z'
  11  '-x+339/710, -y+1/2, z+1/2'
  12  'x+1/2, y+1/2, -z+1/2'
  13  '-x+339/710, y+1/2, -z+1/2'
  14  'x+1/2, -y+1/2, z+1/2'
  15  'x+1/2, -y+1/2, -z'
  16  '-x+339/710, y+1/2, z'
loop_
 _atom_site_type_symbol
 _atom_site_label
 _atom_site_symmetry_multiplicity
 _atom_site_fract_x
 _atom_site_fract_y
 _atom_site_fract_z
 _atom_site_occupancy
  Mn  Mn0  4  0.00000000  0.33708917  0.75000000  1
  Ni  Ni1  4  0.00000000  0.00000000  0.00000000  1
  S  S2  8  0.01402273  0.33458576  0.11515536  1
