# generated using pymatgen
data_MnPO4
_symmetry_space_group_name_H-M   P2/c
_cell_length_a   4.45766962
_cell_length_b   5.36004454
_cell_length_c   4.59997315
_cell_angle_alpha   90.00000000
_cell_angle_beta   96.20796228
_cell_angle_gamma   90.00000000
_symmetry_Int_Tables_number   13
_chemical_formula_structural   MnPO4
_chemical_formula_sum   'Mn2 P2 O8'
_cell_volume   109.26406413
_cell_formula_units_Z   2
loop_
 _symmetry_equiv_pos_site_id
 _symmetry_equiv_pos_as_xyz
  1  'x, y, z'
  2  '-x, -y, -z'
  3  '-x, y, -z+1/2'
  4  'x, -y, z+1/2'
loop_
 _atom_site_type_symbol
 _atom_site_label
 _atom_site_symmetry_multiplicity
 _atom_site_fract_x
 _atom_site_fract_y
 _atom_site_fract_z
 _atom_site_occupancy
  Mn  Mn0  2  0.00000000  0.18005961  0.75000000  1
  P  P1  2  0.50000000  0.35542414  0.25000000  1
  O  O2  4  0.25964379  0.14498365  0.10209731  1
  O  O3  4  0.29443531  0.40153117  0.54548368  1
