# generated using pymatgen
data_MnPtCl4
_symmetry_space_group_name_H-M   P2/c
_cell_length_a   5.76029522
_cell_length_b   7.13831894
_cell_length_c   6.33012891
_cell_angle_alpha   90.00000000
_cell_angle_beta   90.51079616
_cell_angle_gamma   90.00000000
_symmetry_Int_Tables_number   13
_chemical_formula_structural   MnPtCl4
_chemical_formula_sum   'Mn2 Pt2 Cl8'
_cell_volume   260.27711599
_cell_formula_units_Z   2
loop_
 _symmetry_equiv_pos_site_id
 _symmetry_equiv_pos_as_xyz
  1  'x, y, z'
  2  '-x, -y, -z'
  3  '-x, y, -z+1/2'
  4  'x, -y, z+1/2'
loop_
 _atom_site_type_symbol
 _atom_site_label
 _atom_site_symmetry_multiplicity
 _atom_site_fract_x
 _atom_site_fract_y
 _atom_site_fract_z
 _atom_site_occupancy
  Mn  Mn0  2  0.00000000  0.13922232  0.75000000  1
  Pt  Pt1  2  0.50000000  0.36077827  0.25000000  1
  Cl  Cl2  4  0.23720078  0.11721045  0.42383642  1
  Cl  Cl3  4  0.25915755  0.37913058  0.91769624  1
