# generated using pymatgen
data_MnSnF4
_symmetry_space_group_name_H-M   P2/c
_cell_length_a   5.13132426
_cell_length_b   6.08787342
_cell_length_c   5.65547187
_cell_angle_alpha   90.00000000
_cell_angle_beta   93.67959542
_cell_angle_gamma   90.00000000
_symmetry_Int_Tables_number   13
_chemical_formula_structural   MnSnF4
_chemical_formula_sum   'Mn2 Sn2 F8'
_cell_volume   176.30625214
_cell_formula_units_Z   2
loop_
 _symmetry_equiv_pos_site_id
 _symmetry_equiv_pos_as_xyz
  1  'x, y, z'
  2  '-x, -y, -z'
  3  '-x, y, -z+1/2'
  4  'x, -y, z+1/2'
loop_
 _atom_site_type_symbol
 _atom_site_label
 _atom_site_symmetry_multiplicity
 _atom_site_fract_x
 _atom_site_fract_y
 _atom_site_fract_z
 _atom_site_occupancy
  Mn  Mn0  2  0.00000000  0.16870109  0.75000000  1
  Sn  Sn1  2  0.50000000  0.29448236  0.25000000  1
  F  F2  4  0.23216421  0.06385258  0.47793284  1
  F  F3  4  0.25073953  0.41152992  0.89770916  1
