# generated using pymatgen
data_MnSnBr4
_symmetry_space_group_name_H-M   P2/c
_cell_length_a   6.64437569
_cell_length_b   7.93732709
_cell_length_c   7.14196996
_cell_angle_alpha   90.00000000
_cell_angle_beta   92.13729799
_cell_angle_gamma   90.00000000
_symmetry_Int_Tables_number   13
_chemical_formula_structural   MnSnBr4
_chemical_formula_sum   'Mn2 Sn2 Br8'
_cell_volume   376.39534639
_cell_formula_units_Z   2
loop_
 _symmetry_equiv_pos_site_id
 _symmetry_equiv_pos_as_xyz
  1  'x, y, z'
  2  '-x, -y, -z'
  3  '-x, y, -z+1/2'
  4  'x, -y, z+1/2'
loop_
 _atom_site_type_symbol
 _atom_site_label
 _atom_site_symmetry_multiplicity
 _atom_site_fract_x
 _atom_site_fract_y
 _atom_site_fract_z
 _atom_site_occupancy
  Mn  Mn0  2  0.50000000  0.12717158  0.25000000  1
  Sn  Sn1  2  0.00000000  0.34964565  0.75000000  1
  Br  Br2  4  0.25745081  0.37714754  0.10217137  1
  Br  Br3  4  0.27780258  0.10185532  0.55637859  1
