# generated using pymatgen
data_MnTlS2
_symmetry_space_group_name_H-M   C2/c
_cell_length_a   10.57281108
_cell_length_b   10.56611019
_cell_length_c   14.78868318
_cell_angle_alpha   90.00000000
_cell_angle_beta   100.28586528
_cell_angle_gamma   90.00000000
_symmetry_Int_Tables_number   15
_chemical_formula_structural   MnTlS2
_chemical_formula_sum   'Mn16 Tl16 S32'
_cell_volume   1625.54473470
_cell_formula_units_Z   16
loop_
 _symmetry_equiv_pos_site_id
 _symmetry_equiv_pos_as_xyz
  1  'x, y, z'
  2  '-x, -y, -z'
  3  '-x, y, -z+1/2'
  4  'x, -y, z+1/2'
  5  'x+1/2, y+1/2, z'
  6  '-x+1/2, -y+1/2, -z'
  7  '-x+1/2, y+1/2, -z+1/2'
  8  'x+1/2, -y+1/2, z+1/2'
loop_
 _atom_site_type_symbol
 _atom_site_label
 _atom_site_symmetry_multiplicity
 _atom_site_fract_x
 _atom_site_fract_y
 _atom_site_fract_z
 _atom_site_occupancy
  Mn  Mn0  8  0.10177893  0.18923422  0.15984571  1
  Mn  Mn1  8  0.14635633  0.43648445  0.34328719  1
  Tl  Tl2  8  0.03680200  0.19043274  0.88751702  1
  Tl  Tl3  8  0.21560317  0.43899121  0.61597371  1
  S  S4  8  0.04337868  0.31182469  0.43395727  1
  S  S5  8  0.20663784  0.06625126  0.07132287  1
  S  S6  8  0.24864166  0.31105236  0.25300695  1
  S  S7  4  0.00000000  0.06461708  0.25000000  1
  S  S8  4  0.00000000  0.44004636  0.75000000  1
