# generated using pymatgen
data_MoPdCl4
_symmetry_space_group_name_H-M   P2/c
_cell_length_a   6.02142194
_cell_length_b   7.50550680
_cell_length_c   6.20636163
_cell_angle_alpha   90.00000000
_cell_angle_beta   98.27425998
_cell_angle_gamma   90.00000000
_symmetry_Int_Tables_number   13
_chemical_formula_structural   MoPdCl4
_chemical_formula_sum   'Mo2 Pd2 Cl8'
_cell_volume   277.56946992
_cell_formula_units_Z   2
loop_
 _symmetry_equiv_pos_site_id
 _symmetry_equiv_pos_as_xyz
  1  'x, y, z'
  2  '-x, -y, -z'
  3  '-x, y, -z+1/2'
  4  'x, -y, z+1/2'
loop_
 _atom_site_type_symbol
 _atom_site_label
 _atom_site_symmetry_multiplicity
 _atom_site_fract_x
 _atom_site_fract_y
 _atom_site_fract_z
 _atom_site_occupancy
  Mo  Mo0  2  0.50000000  0.13614044  0.25000000  1
  Pd  Pd1  2  0.00000000  0.31566356  0.75000000  1
  Cl  Cl2  4  0.25848387  0.36016143  0.07488155  1
  Cl  Cl3  4  0.27126372  0.10558951  0.54735519  1
