# generated using pymatgen
data_MoPSe4
_symmetry_space_group_name_H-M   P2/c
_cell_length_a   5.45553192
_cell_length_b   7.42700661
_cell_length_c   6.42167541
_cell_angle_alpha   90.00000000
_cell_angle_beta   90.57134181
_cell_angle_gamma   90.00000000
_symmetry_Int_Tables_number   13
_chemical_formula_structural   MoPSe4
_chemical_formula_sum   'Mo2 P2 Se8'
_cell_volume   260.18225240
_cell_formula_units_Z   2
loop_
 _symmetry_equiv_pos_site_id
 _symmetry_equiv_pos_as_xyz
  1  'x, y, z'
  2  '-x, -y, -z'
  3  '-x, y, -z+1/2'
  4  'x, -y, z+1/2'
loop_
 _atom_site_type_symbol
 _atom_site_label
 _atom_site_symmetry_multiplicity
 _atom_site_fract_x
 _atom_site_fract_y
 _atom_site_fract_z
 _atom_site_occupancy
  Mo  Mo0  2  0.00000000  0.14922256  0.75000000  1
  P  P1  2  0.50000000  0.34917719  0.25000000  1
  Se  Se2  4  0.22533454  0.38807210  0.57416707  1
  Se  Se3  4  0.26785262  0.09603610  0.06810127  1
