# generated using pymatgen
data_Na5BiBr8
_symmetry_space_group_name_H-M   C2/m
_cell_length_a   19.54619374
_cell_length_b   4.07490529
_cell_length_c   11.65032999
_cell_angle_alpha   90.00000000
_cell_angle_beta   104.53055891
_cell_angle_gamma   90.00000000
_symmetry_Int_Tables_number   12
_chemical_formula_structural   Na5BiBr8
_chemical_formula_sum   'Na10 Bi2 Br16'
_cell_volume   898.25483975
_cell_formula_units_Z   2
loop_
 _symmetry_equiv_pos_site_id
 _symmetry_equiv_pos_as_xyz
  1  'x, y, z'
  2  '-x, -y, -z'
  3  '-x, y, -z'
  4  'x, -y, z'
  5  'x+1/2, y+1/2, z'
  6  '-x+1/2, -y+1/2, -z'
  7  '-x+1/2, y+1/2, -z'
  8  'x+1/2, -y+1/2, z'
loop_
 _atom_site_type_symbol
 _atom_site_label
 _atom_site_symmetry_multiplicity
 _atom_site_fract_x
 _atom_site_fract_y
 _atom_site_fract_z
 _atom_site_occupancy
  Na  Na0  4  0.18322397  0.50000000  0.52796333  1
  Na  Na1  4  0.21001985  0.50000000  0.83642449  1
  Na  Na2  2  0.00000000  0.00000000  0.50000000  1
  Bi  Bi3  2  0.00000000  0.50000000  0.00000000  1
  Br  Br4  4  0.03805743  0.00000000  0.18407532  1
  Br  Br5  4  0.07793814  0.50000000  0.64221909  1
  Br  Br6  4  0.14557495  0.00000000  0.97918348  1
  Br  Br7  4  0.23580941  0.50000000  0.32497898  1
