# generated using pymatgen
data_Na8PCl5
_symmetry_space_group_name_H-M   C2/m
_cell_length_a   16.87884219
_cell_length_b   4.10784488
_cell_length_c   10.33975681
_cell_angle_alpha   90.00000000
_cell_angle_beta   110.85320661
_cell_angle_gamma   90.00000000
_symmetry_Int_Tables_number   12
_chemical_formula_structural   Na8PCl5
_chemical_formula_sum   'Na16 P2 Cl10'
_cell_volume   669.95283974
_cell_formula_units_Z   2
loop_
 _symmetry_equiv_pos_site_id
 _symmetry_equiv_pos_as_xyz
  1  'x, y, z'
  2  '-x, -y, -z'
  3  '-x, y, -z'
  4  'x, -y, z'
  5  'x+1/2, y+1/2, z'
  6  '-x+1/2, -y+1/2, -z'
  7  '-x+1/2, y+1/2, -z'
  8  'x+1/2, -y+1/2, z'
loop_
 _atom_site_type_symbol
 _atom_site_label
 _atom_site_symmetry_multiplicity
 _atom_site_fract_x
 _atom_site_fract_y
 _atom_site_fract_z
 _atom_site_occupancy
  Na  Na0  4  0.01641130  0.50000000  0.69986130  1
  Na  Na1  4  0.09624965  0.00000000  0.19466236  1
  Na  Na2  4  0.13663300  0.00000000  0.95175601  1
  Na  Na3  4  0.18314114  0.00000000  0.59935699  1
  P  P4  2  0.00000000  0.50000000  0.00000000  1
  Cl  Cl5  4  0.15633765  0.50000000  0.40188581  1
  Cl  Cl6  4  0.19861099  0.50000000  0.80730074  1
  Cl  Cl7  2  0.00000000  0.00000000  0.50000000  1
