# generated using pymatgen
data_Na8ZnSe5
_symmetry_space_group_name_H-M   C2/m
_cell_length_a   8.94135113
_cell_length_b   4.96243561
_cell_length_c   16.61372955
_cell_angle_alpha   90.00000000
_cell_angle_beta   102.13803731
_cell_angle_gamma   90.00000000
_symmetry_Int_Tables_number   12
_chemical_formula_structural   Na8ZnSe5
_chemical_formula_sum   'Na16 Zn2 Se10'
_cell_volume   720.68560678
_cell_formula_units_Z   2
loop_
 _symmetry_equiv_pos_site_id
 _symmetry_equiv_pos_as_xyz
  1  'x, y, z'
  2  '-x, -y, -z'
  3  '-x, y, -z'
  4  'x, -y, z'
  5  'x+1/2, y+1/2, z'
  6  '-x+1/2, -y+1/2, -z'
  7  '-x+1/2, y+1/2, -z'
  8  'x+1/2, -y+1/2, z'
loop_
 _atom_site_type_symbol
 _atom_site_label
 _atom_site_symmetry_multiplicity
 _atom_site_fract_x
 _atom_site_fract_y
 _atom_site_fract_z
 _atom_site_occupancy
  Na  Na0  4  0.07523247  0.50000000  0.68834951  1
  Na  Na1  4  0.13984179  0.00000000  0.43145629  1
  Na  Na2  4  0.14566809  0.00000000  0.96064089  1
  Na  Na3  4  0.18469459  0.50000000  0.18531270  1
  Zn  Zn4  2  0.00000000  0.50000000  0.50000000  1
  Se  Se5  4  0.14794507  0.50000000  0.86553879  1
  Se  Se6  4  0.21886617  0.00000000  0.62969249  1
  Se  Se7  2  0.00000000  0.50000000  0.00000000  1
