# generated using pymatgen
data_NaGaO2
_symmetry_space_group_name_H-M   C2/c
_cell_length_a   8.60956537
_cell_length_b   8.60897128
_cell_length_c   11.33098481
_cell_angle_alpha   90.00000000
_cell_angle_beta   100.97545465
_cell_angle_gamma   90.00000000
_symmetry_Int_Tables_number   15
_chemical_formula_structural   NaGaO2
_chemical_formula_sum   'Na16 Ga16 O32'
_cell_volume   824.48516163
_cell_formula_units_Z   16
loop_
 _symmetry_equiv_pos_site_id
 _symmetry_equiv_pos_as_xyz
  1  'x, y, z'
  2  '-x, -y, -z'
  3  '-x, y, -z+1/2'
  4  'x, -y, z+1/2'
  5  'x+1/2, y+1/2, z'
  6  '-x+1/2, -y+1/2, -z'
  7  '-x+1/2, y+1/2, -z+1/2'
  8  'x+1/2, -y+1/2, z+1/2'
loop_
 _atom_site_type_symbol
 _atom_site_label
 _atom_site_symmetry_multiplicity
 _atom_site_fract_x
 _atom_site_fract_y
 _atom_site_fract_z
 _atom_site_occupancy
  Na  Na0  8  0.03254520  0.18802627  0.37465459  1
  Na  Na1  8  0.21586825  0.43749463  0.11753408  1
  Ga  Ga2  8  0.09818546  0.18794833  0.64685261  1
  Ga  Ga3  8  0.15009948  0.43637222  0.85289985  1
  O  O4  8  0.05052471  0.31237822  0.95269140  1
  O  O5  8  0.20055618  0.06274786  0.55137692  1
  O  O6  8  0.24687339  0.31208654  0.74998832  1
  O  O7  4  0.00000000  0.06522892  0.75000000  1
  O  O8  4  0.00000000  0.44090955  0.25000000  1
