# generated using pymatgen
data_NaGdF4
_symmetry_space_group_name_H-M   P2/c
_cell_length_a   5.65545628
_cell_length_b   5.51013231
_cell_length_c   5.50819388
_cell_angle_alpha   90.00000000
_cell_angle_beta   92.59845084
_cell_angle_gamma   90.00000000
_symmetry_Int_Tables_number   13
_chemical_formula_structural   NaGdF4
_chemical_formula_sum   'Na2 Gd2 F8'
_cell_volume   171.47156911
_cell_formula_units_Z   2
loop_
 _symmetry_equiv_pos_site_id
 _symmetry_equiv_pos_as_xyz
  1  'x, y, z'
  2  '-x, -y, -z'
  3  '-x, y, -z+1/2'
  4  'x, -y, z+1/2'
loop_
 _atom_site_type_symbol
 _atom_site_label
 _atom_site_symmetry_multiplicity
 _atom_site_fract_x
 _atom_site_fract_y
 _atom_site_fract_z
 _atom_site_occupancy
  Na  Na0  2  0.50000000  0.27152592  0.75000000  1
  Gd  Gd1  2  0.00000000  0.24760266  0.25000000  1
  F  F2  4  0.22405980  0.03864792  0.54885118  1
  F  F3  4  0.22749327  0.46490964  0.97846999  1
