# generated using pymatgen
data_NaMoF4
_symmetry_space_group_name_H-M   P2/c
_cell_length_a   5.06604609
_cell_length_b   6.17762474
_cell_length_c   5.70570231
_cell_angle_alpha   90.00000000
_cell_angle_beta   91.78487282
_cell_angle_gamma   90.00000000
_symmetry_Int_Tables_number   13
_chemical_formula_structural   NaMoF4
_chemical_formula_sum   'Na2 Mo2 F8'
_cell_volume   178.47977365
_cell_formula_units_Z   2
loop_
 _symmetry_equiv_pos_site_id
 _symmetry_equiv_pos_as_xyz
  1  'x, y, z'
  2  '-x, -y, -z'
  3  '-x, y, -z+1/2'
  4  'x, -y, z+1/2'
loop_
 _atom_site_type_symbol
 _atom_site_label
 _atom_site_symmetry_multiplicity
 _atom_site_fract_x
 _atom_site_fract_y
 _atom_site_fract_z
 _atom_site_occupancy
  Na  Na0  2  0.50000000  0.36187855  0.25000000  1
  Mo  Mo1  2  0.00000000  0.14516230  0.75000000  1
  F  F2  4  0.21414267  0.10939339  0.43495158  1
  F  F3  4  0.24828061  0.36484139  0.90882292  1
