# generated using pymatgen
data_NaMoBr4
_symmetry_space_group_name_H-M   P2/c
_cell_length_a   6.64764770
_cell_length_b   7.95380930
_cell_length_c   6.88765994
_cell_angle_alpha   90.00000000
_cell_angle_beta   94.27218398
_cell_angle_gamma   90.00000000
_symmetry_Int_Tables_number   13
_chemical_formula_structural   NaMoBr4
_chemical_formula_sum   'Na2 Mo2 Br8'
_cell_volume   363.16707118
_cell_formula_units_Z   2
loop_
 _symmetry_equiv_pos_site_id
 _symmetry_equiv_pos_as_xyz
  1  'x, y, z'
  2  '-x, -y, -z'
  3  '-x, y, -z+1/2'
  4  'x, -y, z+1/2'
loop_
 _atom_site_type_symbol
 _atom_site_label
 _atom_site_symmetry_multiplicity
 _atom_site_fract_x
 _atom_site_fract_y
 _atom_site_fract_z
 _atom_site_occupancy
  Na  Na0  2  0.50000000  0.35956540  0.25000000  1
  Mo  Mo1  2  0.00000000  0.12874208  0.75000000  1
  Br  Br2  4  0.21677304  0.10509221  0.44604654  1
  Br  Br3  4  0.23515708  0.35729463  0.90141194  1
