# generated using pymatgen
data_NaNdI4
_symmetry_space_group_name_H-M   P2/c
_cell_length_a   8.08117564
_cell_length_b   7.79068377
_cell_length_c   7.67422612
_cell_angle_alpha   90.00000000
_cell_angle_beta   99.81837754
_cell_angle_gamma   90.00000000
_symmetry_Int_Tables_number   13
_chemical_formula_structural   NaNdI4
_chemical_formula_sum   'Na2 Nd2 I8'
_cell_volume   476.07641708
_cell_formula_units_Z   2
loop_
 _symmetry_equiv_pos_site_id
 _symmetry_equiv_pos_as_xyz
  1  'x, y, z'
  2  '-x, -y, -z'
  3  '-x, y, -z+1/2'
  4  'x, -y, z+1/2'
loop_
 _atom_site_type_symbol
 _atom_site_label
 _atom_site_symmetry_multiplicity
 _atom_site_fract_x
 _atom_site_fract_y
 _atom_site_fract_z
 _atom_site_occupancy
  Na  Na0  2  0.50000000  0.33265982  0.25000000  1
  Nd  Nd1  2  0.00000000  0.24135057  0.75000000  1
  I  I2  4  0.22137175  0.06705357  0.09143164  1
  I  I3  4  0.22406399  0.43226945  0.48602435  1
