# generated using pymatgen
data_NaP5Se8
_symmetry_space_group_name_H-M   C2/m
_cell_length_a   15.14889324
_cell_length_b   3.64139255
_cell_length_c   14.38852142
_cell_angle_alpha   90.00000000
_cell_angle_beta   107.05662601
_cell_angle_gamma   90.00000000
_symmetry_Int_Tables_number   12
_chemical_formula_structural   NaP5Se8
_chemical_formula_sum   'Na2 P10 Se16'
_cell_volume   758.80368338
_cell_formula_units_Z   2
loop_
 _symmetry_equiv_pos_site_id
 _symmetry_equiv_pos_as_xyz
  1  'x, y, z'
  2  '-x, -y, -z'
  3  '-x, y, -z'
  4  'x, -y, z'
  5  'x+1/2, y+1/2, z'
  6  '-x+1/2, -y+1/2, -z'
  7  '-x+1/2, y+1/2, -z'
  8  'x+1/2, -y+1/2, z'
loop_
 _atom_site_type_symbol
 _atom_site_label
 _atom_site_symmetry_multiplicity
 _atom_site_fract_x
 _atom_site_fract_y
 _atom_site_fract_z
 _atom_site_occupancy
  Na  Na0  2  0.00000000  0.50000000  0.50000000  1
  P  P1  4  0.19251609  0.00000000  0.11031219  1
  P  P2  4  0.23001499  0.00000000  0.60672309  1
  P  P3  2  0.00000000  0.50000000  0.00000000  1
  Se  Se4  4  0.09453571  0.00000000  0.94742551  1
  Se  Se5  4  0.12049224  0.50000000  0.16824862  1
  Se  Se6  4  0.13713759  0.00000000  0.45312977  1
  Se  Se7  4  0.16568819  0.50000000  0.68210956  1
