# generated using pymatgen
data_NaRhBr4
_symmetry_space_group_name_H-M   P2/c
_cell_length_a   6.57520543
_cell_length_b   7.81135355
_cell_length_c   6.65312541
_cell_angle_alpha   90.00000000
_cell_angle_beta   94.14870174
_cell_angle_gamma   90.00000000
_symmetry_Int_Tables_number   13
_chemical_formula_structural   NaRhBr4
_chemical_formula_sum   'Na2 Rh2 Br8'
_cell_volume   340.81745875
_cell_formula_units_Z   2
loop_
 _symmetry_equiv_pos_site_id
 _symmetry_equiv_pos_as_xyz
  1  'x, y, z'
  2  '-x, -y, -z'
  3  '-x, y, -z+1/2'
  4  'x, -y, z+1/2'
loop_
 _atom_site_type_symbol
 _atom_site_label
 _atom_site_symmetry_multiplicity
 _atom_site_fract_x
 _atom_site_fract_y
 _atom_site_fract_z
 _atom_site_occupancy
  Na  Na0  2  0.50000000  0.14011282  0.75000000  1
  Rh  Rh1  2  0.00000000  0.38190748  0.25000000  1
  Br  Br2  4  0.20894278  0.39684771  0.94918124  1
  Br  Br3  4  0.22337117  0.14907327  0.40319595  1
