# generated using pymatgen
data_NaRhBr4
_symmetry_space_group_name_H-M   P2_1/c
_cell_length_a   10.20723934
_cell_length_b   6.91675741
_cell_length_c   9.42401878
_cell_angle_alpha   90.00000000
_cell_angle_beta   99.93327745
_cell_angle_gamma   90.00000000
_symmetry_Int_Tables_number   14
_chemical_formula_structural   NaRhBr4
_chemical_formula_sum   'Na4 Rh4 Br16'
_cell_volume   655.37114746
_cell_formula_units_Z   4
loop_
 _symmetry_equiv_pos_site_id
 _symmetry_equiv_pos_as_xyz
  1  'x, y, z'
  2  '-x, -y, -z'
  3  '-x, y+1/2, -z+1/2'
  4  'x, -y+1/2, z+1/2'
loop_
 _atom_site_type_symbol
 _atom_site_label
 _atom_site_symmetry_multiplicity
 _atom_site_fract_x
 _atom_site_fract_y
 _atom_site_fract_z
 _atom_site_occupancy
  Na  Na0  4  0.14566745  0.70998573  0.38891947  1
  Rh  Rh1  4  0.33829573  0.23945677  0.20392882  1
  Br  Br2  4  0.12703081  0.04664535  0.19206358  1
  Br  Br3  4  0.19184348  0.51764283  0.12291521  1
  Br  Br4  4  0.34441743  0.11762793  0.95353457  1
  Br  Br5  4  0.44609827  0.58205581  0.80652272  1
