# generated using pymatgen
data_NaRh5Se8
_symmetry_space_group_name_H-M   C2/m
_cell_length_a   12.65811200
_cell_length_b   3.67616390
_cell_length_c   13.20135602
_cell_angle_alpha   90.00000000
_cell_angle_beta   102.79082962
_cell_angle_gamma   90.00000000
_symmetry_Int_Tables_number   12
_chemical_formula_structural   NaRh5Se8
_chemical_formula_sum   'Na2 Rh10 Se16'
_cell_volume   599.05854477
_cell_formula_units_Z   2
loop_
 _symmetry_equiv_pos_site_id
 _symmetry_equiv_pos_as_xyz
  1  'x, y, z'
  2  '-x, -y, -z'
  3  '-x, y, -z'
  4  'x, -y, z'
  5  'x+1/2, y+1/2, z'
  6  '-x+1/2, -y+1/2, -z'
  7  '-x+1/2, y+1/2, -z'
  8  'x+1/2, -y+1/2, z'
loop_
 _atom_site_type_symbol
 _atom_site_label
 _atom_site_symmetry_multiplicity
 _atom_site_fract_x
 _atom_site_fract_y
 _atom_site_fract_z
 _atom_site_occupancy
  Na  Na0  2  0.00000000  0.50000000  0.00000000  1
  Rh  Rh1  4  0.24212806  0.50000000  0.87296399  1
  Rh  Rh2  4  0.24603453  0.50000000  0.37136272  1
  Rh  Rh3  2  0.00000000  0.50000000  0.50000000  1
  Se  Se4  4  0.12686047  0.00000000  0.45558417  1
  Se  Se5  4  0.14528369  0.50000000  0.67158290  1
  Se  Se6  4  0.14875002  0.00000000  0.94232003  1
  Se  Se7  4  0.15152893  0.50000000  0.18916584  1
