# generated using pymatgen
data_NaY5Te8
_symmetry_space_group_name_H-M   C2/m
_cell_length_a   22.93156694
_cell_length_b   4.38880102
_cell_length_c   10.53500894
_cell_angle_alpha   90.00000000
_cell_angle_beta   105.14292314
_cell_angle_gamma   90.00000000
_symmetry_Int_Tables_number   12
_chemical_formula_structural   NaY5Te8
_chemical_formula_sum   'Na2 Y10 Te16'
_cell_volume   1023.44988409
_cell_formula_units_Z   2
loop_
 _symmetry_equiv_pos_site_id
 _symmetry_equiv_pos_as_xyz
  1  'x, y, z'
  2  '-x, -y, -z'
  3  '-x, y, -z'
  4  'x, -y, z'
  5  'x+1/2, y+1/2, z'
  6  '-x+1/2, -y+1/2, -z'
  7  '-x+1/2, y+1/2, -z'
  8  'x+1/2, -y+1/2, z'
loop_
 _atom_site_type_symbol
 _atom_site_label
 _atom_site_symmetry_multiplicity
 _atom_site_fract_x
 _atom_site_fract_y
 _atom_site_fract_z
 _atom_site_occupancy
  Na  Na0  2  0.00000000  0.50000000  0.50000000  1
  Y  Y1  4  0.15201175  0.50000000  0.95294900  1
  Y  Y2  4  0.20482713  0.50000000  0.34426795  1
  Y  Y3  2  0.00000000  0.00000000  0.00000000  1
  Te  Te4  4  0.07502476  0.00000000  0.78977651  1
  Te  Te5  4  0.07763772  0.50000000  0.15822715  1
  Te  Te6  4  0.16490842  0.00000000  0.50019165  1
  Te  Te7  4  0.23126109  0.00000000  0.14567040  1
