# generated using pymatgen
data_NaYbSe2
_symmetry_space_group_name_H-M   C2/c
_cell_length_a   8.65643015
_cell_length_b   17.61907326
_cell_length_c   6.17441814
_cell_angle_alpha   90.00000000
_cell_angle_beta   117.94953496
_cell_angle_gamma   90.00000000
_symmetry_Int_Tables_number   15
_chemical_formula_structural   NaYbSe2
_chemical_formula_sum   'Na8 Yb8 Se16'
_cell_volume   831.87108208
_cell_formula_units_Z   8
loop_
 _symmetry_equiv_pos_site_id
 _symmetry_equiv_pos_as_xyz
  1  'x, y, z'
  2  '-x, -y, -z'
  3  '-x, y, -z+1/2'
  4  'x, -y, z+1/2'
  5  'x+1/2, y+1/2, z'
  6  '-x+1/2, -y+1/2, -z'
  7  '-x+1/2, y+1/2, -z+1/2'
  8  'x+1/2, -y+1/2, z+1/2'
loop_
 _atom_site_type_symbol
 _atom_site_label
 _atom_site_symmetry_multiplicity
 _atom_site_fract_x
 _atom_site_fract_y
 _atom_site_fract_z
 _atom_site_occupancy
  Na  Na0  4  0.00000000  0.03922577  0.25000000  1
  Na  Na1  4  0.00000000  0.14836686  0.75000000  1
  Yb  Yb2  4  0.00000000  0.30456189  0.25000000  1
  Yb  Yb3  4  0.00000000  0.43930928  0.75000000  1
  Se  Se4  8  0.22326962  0.43200625  0.28781514  1
  Se  Se5  8  0.24265826  0.28927459  0.82143972  1
