# generated using pymatgen
data_NbAuCl4
_symmetry_space_group_name_H-M   P2/c
_cell_length_a   10.25289794
_cell_length_b   3.31834080
_cell_length_c   13.07683568
_cell_angle_alpha   90.00000000
_cell_angle_beta   128.93530309
_cell_angle_gamma   90.00000000
_symmetry_Int_Tables_number   13
_chemical_formula_structural   NbAuCl4
_chemical_formula_sum   'Nb2 Au2 Cl8'
_cell_volume   346.07444971
_cell_formula_units_Z   2
loop_
 _symmetry_equiv_pos_site_id
 _symmetry_equiv_pos_as_xyz
  1  'x, y, z'
  2  '-x, -y, -z'
  3  '-x, y, -z+1/2'
  4  'x, -y, z+1/2'
loop_
 _atom_site_type_symbol
 _atom_site_label
 _atom_site_symmetry_multiplicity
 _atom_site_fract_x
 _atom_site_fract_y
 _atom_site_fract_z
 _atom_site_occupancy
  Nb  Nb0  2  0.50000000  0.02575836  0.75000000  1
  Au  Au1  2  0.00000000  0.00000000  0.00000000  1
  Cl  Cl2  4  0.23377873  0.02298978  0.71919888  1
  Cl  Cl3  4  0.38265788  0.47462454  0.06850446  1
