# generated using pymatgen
data_NbRhO4
_symmetry_space_group_name_H-M   P2_1/c
_cell_length_a   5.02923476
_cell_length_b   4.98941407
_cell_length_c   4.99889921
_cell_angle_alpha   90.00000000
_cell_angle_beta   90.56218244
_cell_angle_gamma   90.00000000
_symmetry_Int_Tables_number   14
_chemical_formula_structural   NbRhO4
_chemical_formula_sum   'Nb2 Rh2 O8'
_cell_volume   125.43101307
_cell_formula_units_Z   2
loop_
 _symmetry_equiv_pos_site_id
 _symmetry_equiv_pos_as_xyz
  1  'x, y, z'
  2  '-x, -y, -z'
  3  '-x, y+1/2, -z+1/2'
  4  'x, -y+1/2, z+1/2'
loop_
 _atom_site_type_symbol
 _atom_site_label
 _atom_site_symmetry_multiplicity
 _atom_site_fract_x
 _atom_site_fract_y
 _atom_site_fract_z
 _atom_site_occupancy
  Nb  Nb0  2  0.00000000  0.00000000  0.00000000  1
  Rh  Rh1  2  0.50000000  0.00000000  0.50000000  1
  O  O2  4  0.15700757  0.15357192  0.34958455  1
  O  O3  4  0.33469007  0.66149556  0.33693789  1
