# generated using pymatgen
data_NbVS4
_symmetry_space_group_name_H-M   P2/c
_cell_length_a   5.48450214
_cell_length_b   6.95440070
_cell_length_c   5.80541149
_cell_angle_alpha   90.00000000
_cell_angle_beta   90.45414196
_cell_angle_gamma   90.00000000
_symmetry_Int_Tables_number   13
_chemical_formula_structural   NbVS4
_chemical_formula_sum   'Nb2 V2 S8'
_cell_volume   221.41971436
_cell_formula_units_Z   2
loop_
 _symmetry_equiv_pos_site_id
 _symmetry_equiv_pos_as_xyz
  1  'x, y, z'
  2  '-x, -y, -z'
  3  '-x, y, -z+1/2'
  4  'x, -y, z+1/2'
loop_
 _atom_site_type_symbol
 _atom_site_label
 _atom_site_symmetry_multiplicity
 _atom_site_fract_x
 _atom_site_fract_y
 _atom_site_fract_z
 _atom_site_occupancy
  Nb  Nb0  2  0.00000000  0.40100564  0.25000000  1
  V  V1  2  0.50000000  0.09230994  0.75000000  1
  S  S2  4  0.24662877  0.11827448  0.42525587  1
  S  S3  4  0.26892139  0.36855926  0.91804337  1
