# generated using pymatgen
data_NdCuH4
_symmetry_space_group_name_H-M   P2/c
_cell_length_a   4.66749008
_cell_length_b   5.33160141
_cell_length_c   5.30906395
_cell_angle_alpha   90.00000000
_cell_angle_beta   99.14527766
_cell_angle_gamma   90.00000000
_symmetry_Int_Tables_number   13
_chemical_formula_structural   NdCuH4
_chemical_formula_sum   'Nd2 Cu2 H8'
_cell_volume   130.43769602
_cell_formula_units_Z   2
loop_
 _symmetry_equiv_pos_site_id
 _symmetry_equiv_pos_as_xyz
  1  'x, y, z'
  2  '-x, -y, -z'
  3  '-x, y, -z+1/2'
  4  'x, -y, z+1/2'
loop_
 _atom_site_type_symbol
 _atom_site_label
 _atom_site_symmetry_multiplicity
 _atom_site_fract_x
 _atom_site_fract_y
 _atom_site_fract_z
 _atom_site_occupancy
  Nd  Nd0  2  0.50000000  0.24400993  0.75000000  1
  Cu  Cu1  2  0.00000000  0.32483068  0.25000000  1
  H  H2  4  0.22388535  0.44886007  0.00270296  1
  H  H3  4  0.24636062  0.10240882  0.37795057  1
