# generated using pymatgen
data_NdH2Cl
_symmetry_space_group_name_H-M   P2/m
_cell_length_a   8.13545411
_cell_length_b   3.52376122
_cell_length_c   8.21921986
_cell_angle_alpha   90.00000000
_cell_angle_beta   106.53129820
_cell_angle_gamma   90.00000000
_symmetry_Int_Tables_number   10
_chemical_formula_structural   NdH2Cl
_chemical_formula_sum   'Nd2 H4 Cl2'
_cell_volume   225.88401061
_cell_formula_units_Z   2
loop_
 _symmetry_equiv_pos_site_id
 _symmetry_equiv_pos_as_xyz
  1  'x, y, z'
  2  '-x, -y, -z'
  3  '-x, y, -z'
  4  'x, -y, z'
loop_
 _atom_site_type_symbol
 _atom_site_label
 _atom_site_symmetry_multiplicity
 _atom_site_fract_x
 _atom_site_fract_y
 _atom_site_fract_z
 _atom_site_occupancy
  Nd  Nd0  2  0.18676761  0.00000000  0.83387115  1
  H  H1  2  0.00934097  0.50000000  0.83832088  1
  H  H2  2  0.31713442  0.50000000  0.99188901  1
  Cl  Cl3  2  0.25416606  0.50000000  0.60353282  1
