# generated using pymatgen
data_NiGeI4
_symmetry_space_group_name_H-M   P2/c
_cell_length_a   6.79209700
_cell_length_b   8.07989303
_cell_length_c   7.04671342
_cell_angle_alpha   90.00000000
_cell_angle_beta   90.47255508
_cell_angle_gamma   90.00000000
_symmetry_Int_Tables_number   13
_chemical_formula_structural   NiGeI4
_chemical_formula_sum   'Ni2 Ge2 I8'
_cell_volume   386.70637282
_cell_formula_units_Z   2
loop_
 _symmetry_equiv_pos_site_id
 _symmetry_equiv_pos_as_xyz
  1  'x, y, z'
  2  '-x, -y, -z'
  3  '-x, y, -z+1/2'
  4  'x, -y, z+1/2'
loop_
 _atom_site_type_symbol
 _atom_site_label
 _atom_site_symmetry_multiplicity
 _atom_site_fract_x
 _atom_site_fract_y
 _atom_site_fract_z
 _atom_site_occupancy
  Ni  Ni0  2  0.50000000  0.37330451  0.25000000  1
  Ge  Ge1  2  0.00000000  0.13727796  0.75000000  1
  I  I2  4  0.25662971  0.12517409  0.10092920  1
  I  I3  4  0.28467441  0.39188310  0.55820256  1
