# generated using pymatgen
data_NiOsCl4
_symmetry_space_group_name_H-M   P2/c
_cell_length_a   5.47460143
_cell_length_b   6.87212309
_cell_length_c   6.01456625
_cell_angle_alpha   90.00000000
_cell_angle_beta   93.88104526
_cell_angle_gamma   90.00000000
_symmetry_Int_Tables_number   13
_chemical_formula_structural   NiOsCl4
_chemical_formula_sum   'Ni2 Os2 Cl8'
_cell_volume   225.76189852
_cell_formula_units_Z   2
loop_
 _symmetry_equiv_pos_site_id
 _symmetry_equiv_pos_as_xyz
  1  'x, y, z'
  2  '-x, -y, -z'
  3  '-x, y, -z+1/2'
  4  'x, -y, z+1/2'
loop_
 _atom_site_type_symbol
 _atom_site_label
 _atom_site_symmetry_multiplicity
 _atom_site_fract_x
 _atom_site_fract_y
 _atom_site_fract_z
 _atom_site_occupancy
  Ni  Ni0  2  0.00000000  0.34225579  0.75000000  1
  Os  Os1  2  0.50000000  0.14447410  0.25000000  1
  Cl  Cl2  4  0.24199479  0.38233702  0.07409503  1
  Cl  Cl3  4  0.26212355  0.10935709  0.56650787  1
