# generated using pymatgen
data_NiPtF4
_symmetry_space_group_name_H-M   P2/c
_cell_length_a   4.86758462
_cell_length_b   6.01012634
_cell_length_c   5.39767915
_cell_angle_alpha   90.00000000
_cell_angle_beta   90.18127984
_cell_angle_gamma   90.00000000
_symmetry_Int_Tables_number   13
_chemical_formula_structural   NiPtF4
_chemical_formula_sum   'Ni2 Pt2 F8'
_cell_volume   157.90722564
_cell_formula_units_Z   2
loop_
 _symmetry_equiv_pos_site_id
 _symmetry_equiv_pos_as_xyz
  1  'x, y, z'
  2  '-x, -y, -z'
  3  '-x, y, -z+1/2'
  4  'x, -y, z+1/2'
loop_
 _atom_site_type_symbol
 _atom_site_label
 _atom_site_symmetry_multiplicity
 _atom_site_fract_x
 _atom_site_fract_y
 _atom_site_fract_z
 _atom_site_occupancy
  Ni  Ni0  2  0.50000000  0.13918335  0.75000000  1
  Pt  Pt1  2  0.00000000  0.34639324  0.25000000  1
  F  F2  4  0.25853750  0.37485372  0.59422026  1
  F  F3  4  0.27952376  0.10056520  0.06886214  1
