# generated using pymatgen
data_NiSnBr4
_symmetry_space_group_name_H-M   P2/c
_cell_length_a   6.53792128
_cell_length_b   7.70497864
_cell_length_c   6.86558662
_cell_angle_alpha   90.00000000
_cell_angle_beta   92.69717869
_cell_angle_gamma   90.00000000
_symmetry_Int_Tables_number   13
_chemical_formula_structural   NiSnBr4
_chemical_formula_sum   'Ni2 Sn2 Br8'
_cell_volume   345.46765820
_cell_formula_units_Z   2
loop_
 _symmetry_equiv_pos_site_id
 _symmetry_equiv_pos_as_xyz
  1  'x, y, z'
  2  '-x, -y, -z'
  3  '-x, y, -z+1/2'
  4  'x, -y, z+1/2'
loop_
 _atom_site_type_symbol
 _atom_site_label
 _atom_site_symmetry_multiplicity
 _atom_site_fract_x
 _atom_site_fract_y
 _atom_site_fract_z
 _atom_site_occupancy
  Ni  Ni0  2  0.50000000  0.37983911  0.75000000  1
  Sn  Sn1  2  0.00000000  0.15361271  0.25000000  1
  Br  Br2  4  0.26600387  0.12856974  0.60866660  1
  Br  Br3  4  0.28654482  0.40069154  0.05408546  1
