# generated using pymatgen
data_PbSeF2
_symmetry_space_group_name_H-M   P-3m1
_cell_length_a   3.90307003
_cell_length_b   3.90307003
_cell_length_c   14.42928401
_cell_angle_alpha   90.00000000
_cell_angle_beta   90.00000000
_cell_angle_gamma   120.00000000
_symmetry_Int_Tables_number   164
_chemical_formula_structural   PbSeF2
_chemical_formula_sum   'Pb2 Se2 F4'
_cell_volume   190.36543684
_cell_formula_units_Z   2
loop_
 _symmetry_equiv_pos_site_id
 _symmetry_equiv_pos_as_xyz
  1  'x, y, z'
  2  '-x, -y, -z'
  3  '-y, x-y, z'
  4  'y, -x+y, -z'
  5  '-x+y, -x, z'
  6  'x-y, x, -z'
  7  'y, x, -z'
  8  '-y, -x, z'
  9  'x-y, -y, -z'
  10  '-x+y, y, z'
  11  '-x, -x+y, -z'
  12  'x, x-y, z'
loop_
 _atom_site_type_symbol
 _atom_site_label
 _atom_site_symmetry_multiplicity
 _atom_site_fract_x
 _atom_site_fract_y
 _atom_site_fract_z
 _atom_site_occupancy
  Pb  Pb0  2  0.33333333  0.66666667  0.89777554  1
  Se  Se1  2  0.33333333  0.66666667  0.59619122  1
  F  F2  2  0.33333333  0.66666667  0.16581224  1
  F  F3  2  0.33333333  0.66666667  0.37072868  1
