# generated using pymatgen
data_Rb2HF
_symmetry_space_group_name_H-M   C2/m
_cell_length_a   7.30913420
_cell_length_b   14.56104167
_cell_length_c   4.33264318
_cell_angle_alpha   90.00000000
_cell_angle_beta   90.34818748
_cell_angle_gamma   90.00000000
_symmetry_Int_Tables_number   12
_chemical_formula_structural   Rb2HF
_chemical_formula_sum   'Rb8 H4 F4'
_cell_volume   461.10866597
_cell_formula_units_Z   4
loop_
 _symmetry_equiv_pos_site_id
 _symmetry_equiv_pos_as_xyz
  1  'x, y, z'
  2  '-x, -y, -z'
  3  '-x, y, -z'
  4  'x, -y, z'
  5  'x+1/2, y+1/2, z'
  6  '-x+1/2, -y+1/2, -z'
  7  '-x+1/2, y+1/2, -z'
  8  'x+1/2, -y+1/2, z'
loop_
 _atom_site_type_symbol
 _atom_site_label
 _atom_site_symmetry_multiplicity
 _atom_site_fract_x
 _atom_site_fract_y
 _atom_site_fract_z
 _atom_site_occupancy
  Rb  Rb0  8  0.24642308  0.37055378  0.26753180  1
  H  H1  4  0.24134373  0.50000000  0.75733439  1
  F  F2  4  0.00000000  0.24858810  0.50000000  1
