# generated using pymatgen
data_Rb8CdSe5
_symmetry_space_group_name_H-M   Cm
_cell_length_a   24.70786991
_cell_length_b   5.45536632
_cell_length_c   10.45265376
_cell_angle_alpha   90.00000000
_cell_angle_beta   108.40397406
_cell_angle_gamma   90.00000000
_symmetry_Int_Tables_number   8
_chemical_formula_structural   Rb8CdSe5
_chemical_formula_sum   'Rb16 Cd2 Se10'
_cell_volume   1336.85786360
_cell_formula_units_Z   2
loop_
 _symmetry_equiv_pos_site_id
 _symmetry_equiv_pos_as_xyz
  1  'x, y, z'
  2  'x, -y, z'
  3  'x+1/2, y+1/2, z'
  4  'x+1/2, -y+1/2, z'
loop_
 _atom_site_type_symbol
 _atom_site_label
 _atom_site_symmetry_multiplicity
 _atom_site_fract_x
 _atom_site_fract_y
 _atom_site_fract_z
 _atom_site_occupancy
  Rb  Rb0  2  0.07659737  0.00000000  0.79395130  1
  Rb  Rb1  2  0.08336870  0.50000000  0.23705407  1
  Rb  Rb2  2  0.17059798  0.00000000  0.49847171  1
  Rb  Rb3  2  0.24122026  0.50000000  0.82198931  1
  Rb  Rb4  2  0.24936506  0.00000000  0.21032490  1
  Rb  Rb5  2  0.35172553  0.50000000  0.58333229  1
  Rb  Rb6  2  0.41308630  0.50000000  0.17655772  1
  Rb  Rb7  2  0.45271254  0.00000000  0.89478392  1
  Cd  Cd8  2  0.48134822  0.00000000  0.51571094  1
  Se  Se9  2  0.02172288  0.00000000  0.05089048  1
  Se  Se10  2  0.09661563  0.50000000  0.61778093  1
  Se  Se11  2  0.22684576  0.50000000  0.35900478  1
  Se  Se12  2  0.30831361  0.00000000  0.74807962  1
  Se  Se13  2  0.32748077  0.00000000  0.99206801  1
