# generated using pymatgen
data_RbAgI2
_symmetry_space_group_name_H-M   P-3m1
_cell_length_a   4.70498999
_cell_length_b   4.70498999
_cell_length_c   24.17762940
_cell_angle_alpha   90.00000000
_cell_angle_beta   90.00000000
_cell_angle_gamma   120.00000000
_symmetry_Int_Tables_number   164
_chemical_formula_structural   RbAgI2
_chemical_formula_sum   'Rb3 Ag3 I6'
_cell_volume   463.51282545
_cell_formula_units_Z   3
loop_
 _symmetry_equiv_pos_site_id
 _symmetry_equiv_pos_as_xyz
  1  'x, y, z'
  2  '-x, -y, -z'
  3  '-y, x-y, z'
  4  'y, -x+y, -z'
  5  '-x+y, -x, z'
  6  'x-y, x, -z'
  7  'y, x, -z'
  8  '-y, -x, z'
  9  'x-y, -y, -z'
  10  '-x+y, y, z'
  11  '-x, -x+y, -z'
  12  'x, x-y, z'
loop_
 _atom_site_type_symbol
 _atom_site_label
 _atom_site_symmetry_multiplicity
 _atom_site_fract_x
 _atom_site_fract_y
 _atom_site_fract_z
 _atom_site_occupancy
  Rb  Rb0  2  0.33333333  0.66666667  0.69948008  1
  Rb  Rb1  1  0.00000000  0.00000000  0.50000000  1
  Ag  Ag2  2  0.33333333  0.66666667  0.13591670  1
  Ag  Ag3  1  0.00000000  0.00000000  0.00000000  1
  I  I4  2  0.00000000  0.00000000  0.20017583  1
  I  I5  2  0.33333333  0.66666667  0.40008950  1
  I  I6  2  0.33333333  0.66666667  0.93262698  1
