# generated using pymatgen
data_RbCoF4
_symmetry_space_group_name_H-M   P2/c
_cell_length_a   5.75377874
_cell_length_b   6.96003021
_cell_length_c   5.25991816
_cell_angle_alpha   90.00000000
_cell_angle_beta   91.75457701
_cell_angle_gamma   90.00000000
_symmetry_Int_Tables_number   13
_chemical_formula_structural   RbCoF4
_chemical_formula_sum   'Rb2 Co2 F8'
_cell_volume   210.54241559
_cell_formula_units_Z   2
loop_
 _symmetry_equiv_pos_site_id
 _symmetry_equiv_pos_as_xyz
  1  'x, y, z'
  2  '-x, -y, -z'
  3  '-x, y, -z+1/2'
  4  'x, -y, z+1/2'
loop_
 _atom_site_type_symbol
 _atom_site_label
 _atom_site_symmetry_multiplicity
 _atom_site_fract_x
 _atom_site_fract_y
 _atom_site_fract_z
 _atom_site_occupancy
  Rb  Rb0  2  0.50000000  0.32606144  0.75000000  1
  Co  Co1  2  0.00000000  0.13219592  0.25000000  1
  F  F2  4  0.17566544  0.07697427  0.57837284  1
  F  F3  4  0.21979911  0.31493872  0.17788677  1
