# generated using pymatgen
data_RbErF4
_symmetry_space_group_name_H-M   P2/c
_cell_length_a   6.21823505
_cell_length_b   6.64521026
_cell_length_c   5.95381763
_cell_angle_alpha   90.00000000
_cell_angle_beta   92.33696755
_cell_angle_gamma   90.00000000
_symmetry_Int_Tables_number   13
_chemical_formula_structural   RbErF4
_chemical_formula_sum   'Rb2 Er2 F8'
_cell_volume   245.81593572
_cell_formula_units_Z   2
loop_
 _symmetry_equiv_pos_site_id
 _symmetry_equiv_pos_as_xyz
  1  'x, y, z'
  2  '-x, -y, -z'
  3  '-x, y, -z+1/2'
  4  'x, -y, z+1/2'
loop_
 _atom_site_type_symbol
 _atom_site_label
 _atom_site_symmetry_multiplicity
 _atom_site_fract_x
 _atom_site_fract_y
 _atom_site_fract_z
 _atom_site_occupancy
  Rb  Rb0  2  0.00000000  0.30819312  0.75000000  1
  Er  Er1  2  0.50000000  0.16369985  0.25000000  1
  F  F2  4  0.26843362  0.36693600  0.13268826  1
  F  F3  4  0.31802736  0.07793299  0.54503379  1
