# generated using pymatgen
data_RbGaF4
_symmetry_space_group_name_H-M   P2/c
_cell_length_a   6.86031517
_cell_length_b   6.59016747
_cell_length_c   11.83743061
_cell_angle_alpha   90.00000000
_cell_angle_beta   111.58356333
_cell_angle_gamma   90.00000000
_symmetry_Int_Tables_number   13
_chemical_formula_structural   RbGaF4
_chemical_formula_sum   'Rb4 Ga4 F16'
_cell_volume   497.65208909
_cell_formula_units_Z   4
loop_
 _symmetry_equiv_pos_site_id
 _symmetry_equiv_pos_as_xyz
  1  'x, y, z'
  2  '-x, -y, -z'
  3  '-x, y, -z+1/2'
  4  'x, -y, z+1/2'
loop_
 _atom_site_type_symbol
 _atom_site_label
 _atom_site_symmetry_multiplicity
 _atom_site_fract_x
 _atom_site_fract_y
 _atom_site_fract_z
 _atom_site_occupancy
  Rb  Rb0  2  0.00000000  0.34912378  0.75000000  1
  Rb  Rb1  2  0.50000000  0.16864192  0.25000000  1
  Ga  Ga2  4  0.29356871  0.28869602  0.54060524  1
  F  F3  4  0.17079846  0.10230838  0.60414133  1
  F  F4  4  0.22416094  0.28476728  0.37851184  1
  F  F5  4  0.23262475  0.46742310  0.08993116  1
  F  F6  4  0.42824283  0.23820885  0.88817862  1
