# generated using pymatgen
data_RbMnTe2
_symmetry_space_group_name_H-M   C2/c
_cell_length_a   9.02683418
_cell_length_b   11.77576098
_cell_length_c   7.30310153
_cell_angle_alpha   90.00000000
_cell_angle_beta   105.01642611
_cell_angle_gamma   90.00000000
_symmetry_Int_Tables_number   15
_chemical_formula_structural   RbMnTe2
_chemical_formula_sum   'Rb4 Mn4 Te8'
_cell_volume   749.79438211
_cell_formula_units_Z   4
loop_
 _symmetry_equiv_pos_site_id
 _symmetry_equiv_pos_as_xyz
  1  'x, y, z'
  2  '-x, -y, -z'
  3  '-x, y, -z+1/2'
  4  'x, -y, z+1/2'
  5  'x+1/2, y+1/2, z'
  6  '-x+1/2, -y+1/2, -z'
  7  '-x+1/2, y+1/2, -z+1/2'
  8  'x+1/2, -y+1/2, z+1/2'
loop_
 _atom_site_type_symbol
 _atom_site_label
 _atom_site_symmetry_multiplicity
 _atom_site_fract_x
 _atom_site_fract_y
 _atom_site_fract_z
 _atom_site_occupancy
  Rb  Rb0  4  0.00000000  0.33211938  0.75000000  1
  Mn  Mn1  4  0.00000000  0.00000000  0.00000000  1
  Te  Te2  8  0.21016331  0.04897342  0.81687150  1
