# generated using pymatgen
data_RbTbBr4
_symmetry_space_group_name_H-M   P2/c
_cell_length_a   8.58170046
_cell_length_b   7.04803322
_cell_length_c   7.02218155
_cell_angle_alpha   90.00000000
_cell_angle_beta   95.55397620
_cell_angle_gamma   90.00000000
_symmetry_Int_Tables_number   13
_chemical_formula_structural   RbTbBr4
_chemical_formula_sum   'Rb2 Tb2 Br8'
_cell_volume   422.73648896
_cell_formula_units_Z   2
loop_
 _symmetry_equiv_pos_site_id
 _symmetry_equiv_pos_as_xyz
  1  'x, y, z'
  2  '-x, -y, -z'
  3  '-x, y, -z+1/2'
  4  'x, -y, z+1/2'
loop_
 _atom_site_type_symbol
 _atom_site_label
 _atom_site_symmetry_multiplicity
 _atom_site_fract_x
 _atom_site_fract_y
 _atom_site_fract_z
 _atom_site_occupancy
  Rb  Rb0  2  0.00000000  0.29664185  0.75000000  1
  Tb  Tb1  2  0.50000000  0.24555726  0.25000000  1
  Br  Br2  4  0.30956971  0.44432839  0.52877672  1
  Br  Br3  4  0.31182991  0.05461663  0.92594433  1
