# generated using pymatgen
data_RbTe2P
_symmetry_space_group_name_H-M   C2/c
_cell_length_a   9.39607126
_cell_length_b   11.16163147
_cell_length_c   7.23770613
_cell_angle_alpha   90.00000000
_cell_angle_beta   110.24068305
_cell_angle_gamma   90.00000000
_symmetry_Int_Tables_number   15
_chemical_formula_structural   RbTe2P
_chemical_formula_sum   'Rb4 Te8 P4'
_cell_volume   712.18429426
_cell_formula_units_Z   4
loop_
 _symmetry_equiv_pos_site_id
 _symmetry_equiv_pos_as_xyz
  1  'x, y, z'
  2  '-x, -y, -z'
  3  '-x, y, -z+1/2'
  4  'x, -y, z+1/2'
  5  'x+1/2, y+1/2, z'
  6  '-x+1/2, -y+1/2, -z'
  7  '-x+1/2, y+1/2, -z+1/2'
  8  'x+1/2, -y+1/2, z+1/2'
loop_
 _atom_site_type_symbol
 _atom_site_label
 _atom_site_symmetry_multiplicity
 _atom_site_fract_x
 _atom_site_fract_y
 _atom_site_fract_z
 _atom_site_occupancy
  Rb  Rb0  4  0.00000000  0.29122431  0.25000000  1
  Te  Te1  8  0.21919016  0.00120710  0.34871042  1
  P  P2  4  0.00000000  0.00000000  0.00000000  1
