# generated using pymatgen
data_RbTi5S8
_symmetry_space_group_name_H-M   C2/m
_cell_length_a   17.93506535
_cell_length_b   3.44973378
_cell_length_c   8.97859923
_cell_angle_alpha   90.00000000
_cell_angle_beta   104.91446168
_cell_angle_gamma   90.00000000
_symmetry_Int_Tables_number   12
_chemical_formula_structural   RbTi5S8
_chemical_formula_sum   'Rb2 Ti10 S16'
_cell_volume   536.80199526
_cell_formula_units_Z   2
loop_
 _symmetry_equiv_pos_site_id
 _symmetry_equiv_pos_as_xyz
  1  'x, y, z'
  2  '-x, -y, -z'
  3  '-x, y, -z'
  4  'x, -y, z'
  5  'x+1/2, y+1/2, z'
  6  '-x+1/2, -y+1/2, -z'
  7  '-x+1/2, y+1/2, -z'
  8  'x+1/2, -y+1/2, z'
loop_
 _atom_site_type_symbol
 _atom_site_label
 _atom_site_symmetry_multiplicity
 _atom_site_fract_x
 _atom_site_fract_y
 _atom_site_fract_z
 _atom_site_occupancy
  Rb  Rb0  2  0.00000000  0.50000000  0.50000000  1
  Ti  Ti1  4  0.16295531  0.50000000  0.99562004  1
  Ti  Ti2  4  0.20785744  0.50000000  0.34804307  1
  Ti  Ti3  2  0.00000000  0.00000000  0.00000000  1
  S  S4  4  0.07662821  0.50000000  0.16447379  1
  S  S5  4  0.08825330  0.00000000  0.83075311  1
  S  S6  4  0.16295795  0.00000000  0.49375207  1
  S  S7  4  0.24335058  0.00000000  0.16931870  1
