# generated using pymatgen
data_RbYS2
_symmetry_space_group_name_H-M   C2/c
_cell_length_a   8.76290920
_cell_length_b   16.34153707
_cell_length_c   7.16042360
_cell_angle_alpha   90.00000000
_cell_angle_beta   122.12624573
_cell_angle_gamma   90.00000000
_symmetry_Int_Tables_number   15
_chemical_formula_structural   RbYS2
_chemical_formula_sum   'Rb8 Y8 S16'
_cell_volume   868.36236535
_cell_formula_units_Z   8
loop_
 _symmetry_equiv_pos_site_id
 _symmetry_equiv_pos_as_xyz
  1  'x, y, z'
  2  '-x, -y, -z'
  3  '-x, y, -z+1/2'
  4  'x, -y, z+1/2'
  5  'x+1/2, y+1/2, z'
  6  '-x+1/2, -y+1/2, -z'
  7  '-x+1/2, y+1/2, -z+1/2'
  8  'x+1/2, -y+1/2, z+1/2'
loop_
 _atom_site_type_symbol
 _atom_site_label
 _atom_site_symmetry_multiplicity
 _atom_site_fract_x
 _atom_site_fract_y
 _atom_site_fract_z
 _atom_site_occupancy
  Rb  Rb0  4  0.00000000  0.05204893  0.75000000  1
  Rb  Rb1  4  0.00000000  0.17437241  0.25000000  1
  Y  Y2  4  0.00000000  0.31023859  0.75000000  1
  Y  Y3  4  0.00000000  0.43350565  0.25000000  1
  S  S4  8  0.18062113  0.43649509  0.70211061  1
  S  S5  8  0.22242244  0.31349253  0.20089616  1
