# generated using pymatgen
data_RuPbF4
_symmetry_space_group_name_H-M   P2/c
_cell_length_a   5.76695670
_cell_length_b   5.95342443
_cell_length_c   5.89714068
_cell_angle_alpha   90.00000000
_cell_angle_beta   94.58345815
_cell_angle_gamma   90.00000000
_symmetry_Int_Tables_number   13
_chemical_formula_structural   RuPbF4
_chemical_formula_sum   'Ru2 Pb2 F8'
_cell_volume   201.81986955
_cell_formula_units_Z   2
loop_
 _symmetry_equiv_pos_site_id
 _symmetry_equiv_pos_as_xyz
  1  'x, y, z'
  2  '-x, -y, -z'
  3  '-x, y, -z+1/2'
  4  'x, -y, z+1/2'
loop_
 _atom_site_type_symbol
 _atom_site_label
 _atom_site_symmetry_multiplicity
 _atom_site_fract_x
 _atom_site_fract_y
 _atom_site_fract_z
 _atom_site_occupancy
  Ru  Ru0  2  0.50000000  0.20192250  0.75000000  1
  Pb  Pb1  2  0.00000000  0.26561185  0.25000000  1
  F  F2  4  0.23480489  0.42896873  0.58920337  1
  F  F3  4  0.25813764  0.05502041  0.97769579  1
