# generated using pymatgen
data_SbBr2F
_symmetry_space_group_name_H-M   C2/c
_cell_length_a   11.21410910
_cell_length_b   7.42597902
_cell_length_c   7.67737063
_cell_angle_alpha   90.00000000
_cell_angle_beta   129.20814153
_cell_angle_gamma   90.00000000
_symmetry_Int_Tables_number   15
_chemical_formula_structural   SbBr2F
_chemical_formula_sum   'Sb4 Br8 F4'
_cell_volume   495.39458786
_cell_formula_units_Z   4
loop_
 _symmetry_equiv_pos_site_id
 _symmetry_equiv_pos_as_xyz
  1  'x, y, z'
  2  '-x, -y, -z'
  3  '-x, y, -z+1/2'
  4  'x, -y, z+1/2'
  5  'x+1/2, y+1/2, z'
  6  '-x+1/2, -y+1/2, -z'
  7  '-x+1/2, y+1/2, -z+1/2'
  8  'x+1/2, -y+1/2, z+1/2'
loop_
 _atom_site_type_symbol
 _atom_site_label
 _atom_site_symmetry_multiplicity
 _atom_site_fract_x
 _atom_site_fract_y
 _atom_site_fract_z
 _atom_site_occupancy
  Sb  Sb0  4  0.25000000  0.25000000  0.50000000  1
  Br  Br1  8  0.20637572  0.07899243  0.78359508  1
  F  F2  4  0.00000000  0.29933688  0.25000000  1
