# generated using pymatgen
data_ScCuH4
_symmetry_space_group_name_H-M   P2_1/c
_cell_length_a   4.24686895
_cell_length_b   4.53610079
_cell_length_c   5.25701631
_cell_angle_alpha   90.00000000
_cell_angle_beta   104.35671830
_cell_angle_gamma   90.00000000
_symmetry_Int_Tables_number   14
_chemical_formula_structural   ScCuH4
_chemical_formula_sum   'Sc2 Cu2 H8'
_cell_volume   98.10968834
_cell_formula_units_Z   2
loop_
 _symmetry_equiv_pos_site_id
 _symmetry_equiv_pos_as_xyz
  1  'x, y, z'
  2  '-x, -y, -z'
  3  '-x, y+1/2, -z+1/2'
  4  'x, -y+1/2, z+1/2'
loop_
 _atom_site_type_symbol
 _atom_site_label
 _atom_site_symmetry_multiplicity
 _atom_site_fract_x
 _atom_site_fract_y
 _atom_site_fract_z
 _atom_site_occupancy
  Sc  Sc0  2  0.00000000  0.00000000  0.50000000  1
  Cu  Cu1  2  0.50000000  0.00000000  0.00000000  1
  H  H2  4  0.14282955  0.63618976  0.36493760  1
  H  H3  4  0.36960327  0.20435886  0.29650934  1
