# generated using pymatgen
data_ScCuO2
_symmetry_space_group_name_H-M   P2/m
_cell_length_a   5.48141027
_cell_length_b   3.14223150
_cell_length_c   5.65484008
_cell_angle_alpha   90.00000000
_cell_angle_beta   95.40670035
_cell_angle_gamma   90.00000000
_symmetry_Int_Tables_number   10
_chemical_formula_structural   ScCuO2
_chemical_formula_sum   'Sc2 Cu2 O4'
_cell_volume   96.96484488
_cell_formula_units_Z   2
loop_
 _symmetry_equiv_pos_site_id
 _symmetry_equiv_pos_as_xyz
  1  'x, y, z'
  2  '-x, -y, -z'
  3  '-x, y, -z'
  4  'x, -y, z'
loop_
 _atom_site_type_symbol
 _atom_site_label
 _atom_site_symmetry_multiplicity
 _atom_site_fract_x
 _atom_site_fract_y
 _atom_site_fract_z
 _atom_site_occupancy
  Sc  Sc0  1  0.00000000  0.00000000  0.00000000  1
  Sc  Sc1  1  0.00000000  0.50000000  0.50000000  1
  Cu  Cu2  2  0.47065346  0.50000000  0.75346369  1
  O  O3  2  0.18453293  0.50000000  0.18842946  1
  O  O4  2  0.20478913  0.00000000  0.68804534  1
