# generated using pymatgen
data_ScHBr4
_symmetry_space_group_name_H-M   P2/c
_cell_length_a   6.35131187
_cell_length_b   8.77878537
_cell_length_c   6.82853744
_cell_angle_alpha   90.00000000
_cell_angle_beta   94.10774250
_cell_angle_gamma   90.00000000
_symmetry_Int_Tables_number   13
_chemical_formula_structural   ScHBr4
_chemical_formula_sum   'Sc2 H2 Br8'
_cell_volume   379.75935055
_cell_formula_units_Z   2
loop_
 _symmetry_equiv_pos_site_id
 _symmetry_equiv_pos_as_xyz
  1  'x, y, z'
  2  '-x, -y, -z'
  3  '-x, y, -z+1/2'
  4  'x, -y, z+1/2'
loop_
 _atom_site_type_symbol
 _atom_site_label
 _atom_site_symmetry_multiplicity
 _atom_site_fract_x
 _atom_site_fract_y
 _atom_site_fract_z
 _atom_site_occupancy
  Sc  Sc0  2  0.00000000  0.38849823  0.75000000  1
  H  H1  2  0.50000000  0.18572821  0.75000000  1
  Br  Br2  4  0.23130724  0.39522620  0.08886967  1
  Br  Br3  4  0.25740551  0.17110377  0.62532426  1
