# generated using pymatgen
data_ScTaSe4
_symmetry_space_group_name_H-M   P2/c
_cell_length_a   5.95933560
_cell_length_b   7.57928732
_cell_length_c   6.52874937
_cell_angle_alpha   90.00000000
_cell_angle_beta   91.50898795
_cell_angle_gamma   90.00000000
_symmetry_Int_Tables_number   13
_chemical_formula_structural   ScTaSe4
_chemical_formula_sum   'Sc2 Ta2 Se8'
_cell_volume   294.78513138
_cell_formula_units_Z   2
loop_
 _symmetry_equiv_pos_site_id
 _symmetry_equiv_pos_as_xyz
  1  'x, y, z'
  2  '-x, -y, -z'
  3  '-x, y, -z+1/2'
  4  'x, -y, z+1/2'
loop_
 _atom_site_type_symbol
 _atom_site_label
 _atom_site_symmetry_multiplicity
 _atom_site_fract_x
 _atom_site_fract_y
 _atom_site_fract_z
 _atom_site_occupancy
  Sc  Sc0  2  0.00000000  0.38205906  0.75000000  1
  Ta  Ta1  2  0.50000000  0.12173149  0.25000000  1
  Se  Se2  4  0.25408180  0.11426347  0.56791797  1
  Se  Se3  4  0.25504118  0.37004043  0.08791292  1
