# generated using pymatgen
data_ScTaTe4
_symmetry_space_group_name_H-M   P2/c
_cell_length_a   6.33950644
_cell_length_b   8.23502292
_cell_length_c   6.91854232
_cell_angle_alpha   90.00000000
_cell_angle_beta   90.50419516
_cell_angle_gamma   90.00000000
_symmetry_Int_Tables_number   13
_chemical_formula_structural   ScTaTe4
_chemical_formula_sum   'Sc2 Ta2 Te8'
_cell_volume   361.17530305
_cell_formula_units_Z   2
loop_
 _symmetry_equiv_pos_site_id
 _symmetry_equiv_pos_as_xyz
  1  'x, y, z'
  2  '-x, -y, -z'
  3  '-x, y, -z+1/2'
  4  'x, -y, z+1/2'
loop_
 _atom_site_type_symbol
 _atom_site_label
 _atom_site_symmetry_multiplicity
 _atom_site_fract_x
 _atom_site_fract_y
 _atom_site_fract_z
 _atom_site_occupancy
  Sc  Sc0  2  0.00000000  0.39209329  0.75000000  1
  Ta  Ta1  2  0.50000000  0.10969397  0.25000000  1
  Te  Te2  4  0.24027777  0.11555318  0.57171158  1
  Te  Te3  4  0.26543583  0.36714114  0.08285844  1
