# generated using pymatgen
data_ScTlTe2
_symmetry_space_group_name_H-M   C2/c
_cell_length_a   12.41095679
_cell_length_b   12.40474377
_cell_length_c   16.58606241
_cell_angle_alpha   90.00000000
_cell_angle_beta   101.08884444
_cell_angle_gamma   90.00000000
_symmetry_Int_Tables_number   15
_chemical_formula_structural   ScTlTe2
_chemical_formula_sum   'Sc16 Tl16 Te32'
_cell_volume   2505.82934050
_cell_formula_units_Z   16
loop_
 _symmetry_equiv_pos_site_id
 _symmetry_equiv_pos_as_xyz
  1  'x, y, z'
  2  '-x, -y, -z'
  3  '-x, y, -z+1/2'
  4  'x, -y, z+1/2'
  5  'x+1/2, y+1/2, z'
  6  '-x+1/2, -y+1/2, -z'
  7  '-x+1/2, y+1/2, -z+1/2'
  8  'x+1/2, -y+1/2, z+1/2'
loop_
 _atom_site_type_symbol
 _atom_site_label
 _atom_site_symmetry_multiplicity
 _atom_site_fract_x
 _atom_site_fract_y
 _atom_site_fract_z
 _atom_site_occupancy
  Sc  Sc0  8  0.09798107  0.18912141  0.14953531  1
  Sc  Sc1  8  0.14839840  0.43525553  0.35211608  1
  Tl  Tl2  8  0.03756698  0.19301390  0.87645997  1
  Tl  Tl3  8  0.22333374  0.43441733  0.63136371  1
  Te  Te4  8  0.05353746  0.31032937  0.45845675  1
  Te  Te5  8  0.20398297  0.06869172  0.04684131  1
  Te  Te6  8  0.24154974  0.18717300  0.74878815  1
  Te  Te7  4  0.00000000  0.05303274  0.25000000  1
  Te  Te8  4  0.00000000  0.43023396  0.75000000  1
