# generated using pymatgen
data_Si5CS8
_symmetry_space_group_name_H-M   P1
_cell_length_a   3.25066920
_cell_length_b   8.80110227
_cell_length_c   9.84771441
_cell_angle_alpha   94.67928625
_cell_angle_beta   99.47538647
_cell_angle_gamma   100.57987938
_symmetry_Int_Tables_number   1
_chemical_formula_structural   Si5CS8
_chemical_formula_sum   'Si5 C1 S8'
_cell_volume   271.34757068
_cell_formula_units_Z   1
loop_
 _symmetry_equiv_pos_site_id
 _symmetry_equiv_pos_as_xyz
  1  'x, y, z'
loop_
 _atom_site_type_symbol
 _atom_site_label
 _atom_site_symmetry_multiplicity
 _atom_site_fract_x
 _atom_site_fract_y
 _atom_site_fract_z
 _atom_site_occupancy
  Si  Si0  1  0.20363878  0.66975632  0.63103814  1
  Si  Si1  1  0.47396975  0.63123342  0.36200182  1
  Si  Si2  1  0.49454765  0.37759806  0.65611228  1
  Si  Si3  1  0.93481888  0.33699122  0.38638350  1
  Si  Si4  1  0.97906173  0.96028803  0.95434859  1
  C  C5  1  0.34699668  0.50740038  0.51089556  1
  S  S6  1  0.09444033  0.80727813  0.43540143  1
  S  S7  1  0.12479657  0.50142830  0.79673525  1
  S  S8  1  0.30334653  0.20109603  0.28830318  1
  S  S9  1  0.46920315  0.83822755  0.05631176  1
  S  S10  1  0.53332336  0.12237545  0.89898856  1
  S  S11  1  0.80908222  0.82663494  0.71873672  1
  S  S12  1  0.85492620  0.51459024  0.22227390  1
  S  S13  1  0.87784815  0.20510194  0.58246930  1
