# generated using pymatgen
data_SiTeS4
_symmetry_space_group_name_H-M   P2/c
_cell_length_a   7.37025962
_cell_length_b   9.50951370
_cell_length_c   5.96883941
_cell_angle_alpha   90.00000000
_cell_angle_beta   93.31295557
_cell_angle_gamma   90.00000000
_symmetry_Int_Tables_number   13
_chemical_formula_structural   SiTeS4
_chemical_formula_sum   'Si2 Te2 S8'
_cell_volume   417.64239526
_cell_formula_units_Z   2
loop_
 _symmetry_equiv_pos_site_id
 _symmetry_equiv_pos_as_xyz
  1  'x, y, z'
  2  '-x, -y, -z'
  3  '-x, y, -z+1/2'
  4  'x, -y, z+1/2'
loop_
 _atom_site_type_symbol
 _atom_site_label
 _atom_site_symmetry_multiplicity
 _atom_site_fract_x
 _atom_site_fract_y
 _atom_site_fract_z
 _atom_site_occupancy
  Si  Si0  2  0.00000000  0.00145746  0.25000000  1
  Te  Te1  2  0.50000000  0.40538804  0.75000000  1
  S  S2  4  0.15349686  0.11740514  0.51319153  1
  S  S3  4  0.28514668  0.43578711  0.08418645  1
