# generated using pymatgen
data_SmCdI4
_symmetry_space_group_name_H-M   P2/c
_cell_length_a   7.40183912
_cell_length_b   8.99600380
_cell_length_c   7.86912224
_cell_angle_alpha   90.00000000
_cell_angle_beta   94.78192428
_cell_angle_gamma   90.00000000
_symmetry_Int_Tables_number   13
_chemical_formula_structural   SmCdI4
_chemical_formula_sum   'Sm2 Cd2 I8'
_cell_volume   522.15716005
_cell_formula_units_Z   2
loop_
 _symmetry_equiv_pos_site_id
 _symmetry_equiv_pos_as_xyz
  1  'x, y, z'
  2  '-x, -y, -z'
  3  '-x, y, -z+1/2'
  4  'x, -y, z+1/2'
loop_
 _atom_site_type_symbol
 _atom_site_label
 _atom_site_symmetry_multiplicity
 _atom_site_fract_x
 _atom_site_fract_y
 _atom_site_fract_z
 _atom_site_occupancy
  Sm  Sm0  2  0.00000000  0.14056771  0.25000000  1
  Cd  Cd1  2  0.50000000  0.35560542  0.75000000  1
  I  I2  4  0.24019893  0.10430020  0.94405116  1
  I  I3  4  0.24818777  0.38360096  0.40935291  1
