# generated using pymatgen
data_SmCuO2
_symmetry_space_group_name_H-M   P2/m
_cell_length_a   5.43190996
_cell_length_b   3.47138121
_cell_length_c   6.43884743
_cell_angle_alpha   90.00000000
_cell_angle_beta   97.87542905
_cell_angle_gamma   90.00000000
_symmetry_Int_Tables_number   10
_chemical_formula_structural   SmCuO2
_chemical_formula_sum   'Sm2 Cu2 O4'
_cell_volume   120.26726558
_cell_formula_units_Z   2
loop_
 _symmetry_equiv_pos_site_id
 _symmetry_equiv_pos_as_xyz
  1  'x, y, z'
  2  '-x, -y, -z'
  3  '-x, y, -z'
  4  'x, -y, z'
loop_
 _atom_site_type_symbol
 _atom_site_label
 _atom_site_symmetry_multiplicity
 _atom_site_fract_x
 _atom_site_fract_y
 _atom_site_fract_z
 _atom_site_occupancy
  Sm  Sm0  1  0.50000000  0.00000000  0.50000000  1
  Sm  Sm1  1  0.50000000  0.50000000  0.00000000  1
  Cu  Cu2  2  0.04574346  0.50000000  0.70979863  1
  O  O3  2  0.27542122  0.00000000  0.79951049  1
  O  O4  2  0.30454782  0.50000000  0.30104791  1
