# generated using pymatgen
data_SmFeBr4
_symmetry_space_group_name_H-M   P2/c
_cell_length_a   6.38470388
_cell_length_b   7.90123568
_cell_length_c   6.98724393
_cell_angle_alpha   90.00000000
_cell_angle_beta   90.26516073
_cell_angle_gamma   90.00000000
_symmetry_Int_Tables_number   13
_chemical_formula_structural   SmFeBr4
_chemical_formula_sum   'Sm2 Fe2 Br8'
_cell_volume   352.48206984
_cell_formula_units_Z   2
loop_
 _symmetry_equiv_pos_site_id
 _symmetry_equiv_pos_as_xyz
  1  'x, y, z'
  2  '-x, -y, -z'
  3  '-x, y, -z+1/2'
  4  'x, -y, z+1/2'
loop_
 _atom_site_type_symbol
 _atom_site_label
 _atom_site_symmetry_multiplicity
 _atom_site_fract_x
 _atom_site_fract_y
 _atom_site_fract_z
 _atom_site_occupancy
  Sm  Sm0  2  0.00000000  0.34014282  0.25000000  1
  Fe  Fe1  2  0.50000000  0.12168992  0.75000000  1
  Br  Br2  4  0.25153589  0.37898103  0.59249322  1
  Br  Br3  4  0.27769057  0.11176697  0.06621335  1
