# generated using pymatgen
data_SmFeH4
_symmetry_space_group_name_H-M   Pmma
_cell_length_a   4.28930518
_cell_length_b   4.39469764
_cell_length_c   5.95334025
_cell_angle_alpha   90.00000000
_cell_angle_beta   90.00000000
_cell_angle_gamma   90.00000000
_symmetry_Int_Tables_number   51
_chemical_formula_structural   SmFeH4
_chemical_formula_sum   'Sm2 Fe2 H8'
_cell_volume   112.22165050
_cell_formula_units_Z   2
loop_
 _symmetry_equiv_pos_site_id
 _symmetry_equiv_pos_as_xyz
  1  'x, y, z'
  2  '-x, -y, -z'
  3  '-x+1/2, -y, z'
  4  'x+1/2, y, -z'
  5  'x+1/2, -y, -z'
  6  '-x+1/2, y, z'
  7  '-x, y, -z'
  8  'x, -y, z'
loop_
 _atom_site_type_symbol
 _atom_site_label
 _atom_site_symmetry_multiplicity
 _atom_site_fract_x
 _atom_site_fract_y
 _atom_site_fract_z
 _atom_site_occupancy
  Sm  Sm0  2  0.25000000  0.50000000  0.26889119  1
  Fe  Fe1  2  0.25000000  0.00000000  0.86738289  1
  H  H2  4  0.00000000  0.23167091  0.00000000  1
  H  H3  4  0.25000000  0.24720055  0.65355019  1
