# generated using pymatgen
data_SmPtI4
_symmetry_space_group_name_H-M   P-1
_cell_length_a   7.29798972
_cell_length_b   7.46922762
_cell_length_c   9.06326311
_cell_angle_alpha   81.01419714
_cell_angle_beta   79.52646714
_cell_angle_gamma   81.93789006
_symmetry_Int_Tables_number   2
_chemical_formula_structural   SmPtI4
_chemical_formula_sum   'Sm2 Pt2 I8'
_cell_volume   476.65546106
_cell_formula_units_Z   2
loop_
 _symmetry_equiv_pos_site_id
 _symmetry_equiv_pos_as_xyz
  1  'x, y, z'
  2  '-x, -y, -z'
loop_
 _atom_site_type_symbol
 _atom_site_label
 _atom_site_symmetry_multiplicity
 _atom_site_fract_x
 _atom_site_fract_y
 _atom_site_fract_z
 _atom_site_occupancy
  Sm  Sm0  2  0.49077350  0.73022903  0.64678332  1
  Pt  Pt1  2  0.00007217  0.25073578  0.85730319  1
  I  I2  2  0.22248573  0.93275679  0.90340720  1
  I  I3  2  0.23990806  0.42196002  0.63280681  1
  I  I4  2  0.24494250  0.45072464  0.13215687  1
  I  I5  2  0.27280127  0.95069960  0.40324512  1
