# generated using pymatgen
data_SmTe4Os
_symmetry_space_group_name_H-M   P2/c
_cell_length_a   6.46508285
_cell_length_b   7.14960263
_cell_length_c   7.73691266
_cell_angle_alpha   90.00000000
_cell_angle_beta   102.90233891
_cell_angle_gamma   90.00000000
_symmetry_Int_Tables_number   13
_chemical_formula_structural   SmTe4Os
_chemical_formula_sum   'Sm2 Te8 Os2'
_cell_volume   348.59235960
_cell_formula_units_Z   2
loop_
 _symmetry_equiv_pos_site_id
 _symmetry_equiv_pos_as_xyz
  1  'x, y, z'
  2  '-x, -y, -z'
  3  '-x, y, -z+1/2'
  4  'x, -y, z+1/2'
loop_
 _atom_site_type_symbol
 _atom_site_label
 _atom_site_symmetry_multiplicity
 _atom_site_fract_x
 _atom_site_fract_y
 _atom_site_fract_z
 _atom_site_occupancy
  Sm  Sm0  2  0.00000000  0.26761772  0.25000000  1
  Te  Te1  4  0.26161094  0.08198379  0.98635433  1
  Te  Te2  4  0.26407207  0.41775592  0.60533985  1
  Os  Os3  2  0.50000000  0.12222979  0.75000000  1
