# generated using pymatgen
data_SmTiI4
_symmetry_space_group_name_H-M   P2/c
_cell_length_a   7.26748263
_cell_length_b   7.74420623
_cell_length_c   7.64361113
_cell_angle_alpha   90.00000000
_cell_angle_beta   102.05171500
_cell_angle_gamma   90.00000000
_symmetry_Int_Tables_number   13
_chemical_formula_structural   SmTiI4
_chemical_formula_sum   'Sm2 Ti2 I8'
_cell_volume   420.70762610
_cell_formula_units_Z   2
loop_
 _symmetry_equiv_pos_site_id
 _symmetry_equiv_pos_as_xyz
  1  'x, y, z'
  2  '-x, -y, -z'
  3  '-x, y, -z+1/2'
  4  'x, -y, z+1/2'
loop_
 _atom_site_type_symbol
 _atom_site_label
 _atom_site_symmetry_multiplicity
 _atom_site_fract_x
 _atom_site_fract_y
 _atom_site_fract_z
 _atom_site_occupancy
  Sm  Sm0  2  0.50000000  0.23432703  0.25000000  1
  Ti  Ti1  2  0.00000000  0.34967908  0.75000000  1
  I  I2  4  0.25105716  0.42553674  0.50533677  1
  I  I3  4  0.25281688  0.07487524  0.90331610  1
