# generated using pymatgen
data_SnMoSe4
_symmetry_space_group_name_H-M   P2/c
_cell_length_a   6.20729042
_cell_length_b   7.80482424
_cell_length_c   6.54585167
_cell_angle_alpha   90.00000000
_cell_angle_beta   92.86325396
_cell_angle_gamma   90.00000000
_symmetry_Int_Tables_number   13
_chemical_formula_structural   SnMoSe4
_chemical_formula_sum   'Sn2 Mo2 Se8'
_cell_volume   316.72973723
_cell_formula_units_Z   2
loop_
 _symmetry_equiv_pos_site_id
 _symmetry_equiv_pos_as_xyz
  1  'x, y, z'
  2  '-x, -y, -z'
  3  '-x, y, -z+1/2'
  4  'x, -y, z+1/2'
loop_
 _atom_site_type_symbol
 _atom_site_label
 _atom_site_symmetry_multiplicity
 _atom_site_fract_x
 _atom_site_fract_y
 _atom_site_fract_z
 _atom_site_occupancy
  Sn  Sn0  2  0.50000000  0.29600112  0.25000000  1
  Mo  Mo1  2  0.00000000  0.17628907  0.75000000  1
  Se  Se2  4  0.20830269  0.08282606  0.44795147  1
  Se  Se3  4  0.26492531  0.37395515  0.87732865  1
