# generated using pymatgen
data_SnTe2Pt
_symmetry_space_group_name_H-M   P2/m
_cell_length_a   7.42838451
_cell_length_b   3.96704779
_cell_length_c   7.60369243
_cell_angle_alpha   90.00000000
_cell_angle_beta   101.16844681
_cell_angle_gamma   90.00000000
_symmetry_Int_Tables_number   10
_chemical_formula_structural   SnTe2Pt
_chemical_formula_sum   'Sn2 Te4 Pt2'
_cell_volume   219.82789028
_cell_formula_units_Z   2
loop_
 _symmetry_equiv_pos_site_id
 _symmetry_equiv_pos_as_xyz
  1  'x, y, z'
  2  '-x, -y, -z'
  3  '-x, y, -z'
  4  'x, -y, z'
loop_
 _atom_site_type_symbol
 _atom_site_label
 _atom_site_symmetry_multiplicity
 _atom_site_fract_x
 _atom_site_fract_y
 _atom_site_fract_z
 _atom_site_occupancy
  Sn  Sn0  1  0.50000000  0.00000000  0.00000000  1
  Sn  Sn1  1  0.50000000  0.00000000  0.50000000  1
  Te  Te2  2  0.15168303  0.00000000  0.70240724  1
  Te  Te3  2  0.24826638  0.50000000  0.17276405  1
  Pt  Pt4  1  0.00000000  0.00000000  0.00000000  1
  Pt  Pt5  1  0.00000000  0.50000000  0.50000000  1
