# generated using pymatgen
data_SrCoBr4
_symmetry_space_group_name_H-M   P2/c
_cell_length_a   6.83768877
_cell_length_b   7.37894219
_cell_length_c   7.13639125
_cell_angle_alpha   90.00000000
_cell_angle_beta   99.96571841
_cell_angle_gamma   90.00000000
_symmetry_Int_Tables_number   13
_chemical_formula_structural   SrCoBr4
_chemical_formula_sum   'Sr2 Co2 Br8'
_cell_volume   354.63311454
_cell_formula_units_Z   2
loop_
 _symmetry_equiv_pos_site_id
 _symmetry_equiv_pos_as_xyz
  1  'x, y, z'
  2  '-x, -y, -z'
  3  '-x, y, -z+1/2'
  4  'x, -y, z+1/2'
loop_
 _atom_site_type_symbol
 _atom_site_label
 _atom_site_symmetry_multiplicity
 _atom_site_fract_x
 _atom_site_fract_y
 _atom_site_fract_z
 _atom_site_occupancy
  Sr  Sr0  2  0.50000000  0.27013305  0.75000000  1
  Co  Co1  2  0.00000000  0.15900240  0.25000000  1
  Br  Br2  4  0.22950578  0.06975340  0.00073499  1
  Br  Br3  4  0.23991528  0.40456391  0.38977781  1
