# generated using pymatgen
data_SrCuS2
_symmetry_space_group_name_H-M   P2/m
_cell_length_a   6.50465020
_cell_length_b   4.00385054
_cell_length_c   7.30422247
_cell_angle_alpha   90.00000000
_cell_angle_beta   90.36286722
_cell_angle_gamma   90.00000000
_symmetry_Int_Tables_number   10
_chemical_formula_structural   SrCuS2
_chemical_formula_sum   'Sr2 Cu2 S4'
_cell_volume   190.22477814
_cell_formula_units_Z   2
loop_
 _symmetry_equiv_pos_site_id
 _symmetry_equiv_pos_as_xyz
  1  'x, y, z'
  2  '-x, -y, -z'
  3  '-x, y, -z'
  4  'x, -y, z'
loop_
 _atom_site_type_symbol
 _atom_site_label
 _atom_site_symmetry_multiplicity
 _atom_site_fract_x
 _atom_site_fract_y
 _atom_site_fract_z
 _atom_site_occupancy
  Sr  Sr0  1  0.50000000  0.00000000  0.50000000  1
  Sr  Sr1  1  0.50000000  0.50000000  0.00000000  1
  Cu  Cu2  2  0.12454459  0.50000000  0.66630142  1
  S  S3  2  0.22276535  0.50000000  0.35197602  1
  S  S4  2  0.22895494  0.00000000  0.81090597  1
