# generated using pymatgen
data_SrSmF4
_symmetry_space_group_name_H-M   P2/c
_cell_length_a   6.17062142
_cell_length_b   5.75470320
_cell_length_c   5.72272749
_cell_angle_alpha   90.00000000
_cell_angle_beta   92.70090190
_cell_angle_gamma   90.00000000
_symmetry_Int_Tables_number   13
_chemical_formula_structural   SrSmF4
_chemical_formula_sum   'Sr2 Sm2 F8'
_cell_volume   202.98885129
_cell_formula_units_Z   2
loop_
 _symmetry_equiv_pos_site_id
 _symmetry_equiv_pos_as_xyz
  1  'x, y, z'
  2  '-x, -y, -z'
  3  '-x, y, -z+1/2'
  4  'x, -y, z+1/2'
loop_
 _atom_site_type_symbol
 _atom_site_label
 _atom_site_symmetry_multiplicity
 _atom_site_fract_x
 _atom_site_fract_y
 _atom_site_fract_z
 _atom_site_occupancy
  Sr  Sr0  2  0.50000000  0.26967853  0.25000000  1
  Sm  Sm1  2  0.00000000  0.24658454  0.75000000  1
  F  F2  4  0.17931354  0.07285708  0.08402555  1
  F  F3  4  0.20194517  0.45362561  0.46545452  1
