# generated using pymatgen
data_TaGaSe4
_symmetry_space_group_name_H-M   P2/c
_cell_length_a   5.86662037
_cell_length_b   9.27230770
_cell_length_c   6.14535476
_cell_angle_alpha   90.00000000
_cell_angle_beta   98.82986754
_cell_angle_gamma   90.00000000
_symmetry_Int_Tables_number   13
_chemical_formula_structural   TaGaSe4
_chemical_formula_sum   'Ta2 Ga2 Se8'
_cell_volume   330.32770119
_cell_formula_units_Z   2
loop_
 _symmetry_equiv_pos_site_id
 _symmetry_equiv_pos_as_xyz
  1  'x, y, z'
  2  '-x, -y, -z'
  3  '-x, y, -z+1/2'
  4  'x, -y, z+1/2'
loop_
 _atom_site_type_symbol
 _atom_site_label
 _atom_site_symmetry_multiplicity
 _atom_site_fract_x
 _atom_site_fract_y
 _atom_site_fract_z
 _atom_site_occupancy
  Ta  Ta0  2  0.50000000  0.33879469  0.25000000  1
  Ga  Ga1  2  0.00000000  0.28924048  0.75000000  1
  Se  Se2  4  0.24403481  0.15772741  0.04708946  1
  Se  Se3  4  0.26166182  0.43224086  0.53908409  1
