# generated using pymatgen
data_TaNbTe4
_symmetry_space_group_name_H-M   P2/c
_cell_length_a   6.33607360
_cell_length_b   7.91301803
_cell_length_c   6.55008035
_cell_angle_alpha   90.00000000
_cell_angle_beta   90.03124033
_cell_angle_gamma   90.00000000
_symmetry_Int_Tables_number   13
_chemical_formula_structural   TaNbTe4
_chemical_formula_sum   'Ta2 Nb2 Te8'
_cell_volume   328.40437308
_cell_formula_units_Z   2
loop_
 _symmetry_equiv_pos_site_id
 _symmetry_equiv_pos_as_xyz
  1  'x, y, z'
  2  '-x, -y, -z'
  3  '-x, y, -z+1/2'
  4  'x, -y, z+1/2'
loop_
 _atom_site_type_symbol
 _atom_site_label
 _atom_site_symmetry_multiplicity
 _atom_site_fract_x
 _atom_site_fract_y
 _atom_site_fract_z
 _atom_site_occupancy
  Ta  Ta0  2  0.50000000  0.40811533  0.75000000  1
  Nb  Nb1  2  0.00000000  0.09018450  0.25000000  1
  Te  Te2  4  0.22148157  0.37559741  0.07274771  1
  Te  Te3  4  0.28029442  0.12568376  0.57422359  1
