# generated using pymatgen
data_TaReTe4
_symmetry_space_group_name_H-M   P2/c
_cell_length_a   6.13380981
_cell_length_b   7.71829900
_cell_length_c   6.46904365
_cell_angle_alpha   90.00000000
_cell_angle_beta   90.47752787
_cell_angle_gamma   90.00000000
_symmetry_Int_Tables_number   13
_chemical_formula_structural   TaReTe4
_chemical_formula_sum   'Ta2 Re2 Te8'
_cell_volume   306.25056787
_cell_formula_units_Z   2
loop_
 _symmetry_equiv_pos_site_id
 _symmetry_equiv_pos_as_xyz
  1  'x, y, z'
  2  '-x, -y, -z'
  3  '-x, y, -z+1/2'
  4  'x, -y, z+1/2'
loop_
 _atom_site_type_symbol
 _atom_site_label
 _atom_site_symmetry_multiplicity
 _atom_site_fract_x
 _atom_site_fract_y
 _atom_site_fract_z
 _atom_site_occupancy
  Ta  Ta0  2  0.00000000  0.10073043  0.25000000  1
  Re  Re1  2  0.50000000  0.39678580  0.75000000  1
  Te  Te2  4  0.22105515  0.38141431  0.42847132  1
  Te  Te3  4  0.28885914  0.12591829  0.92883584  1
