# generated using pymatgen
data_TaSbSe4
_symmetry_space_group_name_H-M   P2/c
_cell_length_a   6.68429510
_cell_length_b   8.64384169
_cell_length_c   6.53396094
_cell_angle_alpha   90.00000000
_cell_angle_beta   106.58366386
_cell_angle_gamma   90.00000000
_symmetry_Int_Tables_number   13
_chemical_formula_structural   TaSbSe4
_chemical_formula_sum   'Ta2 Sb2 Se8'
_cell_volume   361.81583223
_cell_formula_units_Z   2
loop_
 _symmetry_equiv_pos_site_id
 _symmetry_equiv_pos_as_xyz
  1  'x, y, z'
  2  '-x, -y, -z'
  3  '-x, y, -z+1/2'
  4  'x, -y, z+1/2'
loop_
 _atom_site_type_symbol
 _atom_site_label
 _atom_site_symmetry_multiplicity
 _atom_site_fract_x
 _atom_site_fract_y
 _atom_site_fract_z
 _atom_site_occupancy
  Ta  Ta0  2  0.00000000  0.34006565  0.25000000  1
  Sb  Sb1  2  0.50000000  0.33602656  0.75000000  1
  Se  Se2  4  0.22238679  0.42507852  0.99704213  1
  Se  Se3  4  0.23531684  0.14499772  0.46103187  1
