# generated using pymatgen
data_Tb5TlSe8
_symmetry_space_group_name_H-M   C2/m
_cell_length_a   21.51358006
_cell_length_b   4.16171544
_cell_length_c   9.94876175
_cell_angle_alpha   90.00000000
_cell_angle_beta   104.49540440
_cell_angle_gamma   90.00000000
_symmetry_Int_Tables_number   12
_chemical_formula_structural   Tb5TlSe8
_chemical_formula_sum   'Tb10 Tl2 Se16'
_cell_volume   862.39195824
_cell_formula_units_Z   2
loop_
 _symmetry_equiv_pos_site_id
 _symmetry_equiv_pos_as_xyz
  1  'x, y, z'
  2  '-x, -y, -z'
  3  '-x, y, -z'
  4  'x, -y, z'
  5  'x+1/2, y+1/2, z'
  6  '-x+1/2, -y+1/2, -z'
  7  '-x+1/2, y+1/2, -z'
  8  'x+1/2, -y+1/2, z'
loop_
 _atom_site_type_symbol
 _atom_site_label
 _atom_site_symmetry_multiplicity
 _atom_site_fract_x
 _atom_site_fract_y
 _atom_site_fract_z
 _atom_site_occupancy
  Tb  Tb0  4  0.15409882  0.00000000  0.44279951  1
  Tb  Tb1  4  0.20208268  0.00000000  0.84128016  1
  Tb  Tb2  2  0.00000000  0.50000000  0.50000000  1
  Tl  Tl3  2  0.00000000  0.00000000  0.00000000  1
  Se  Se4  4  0.07716501  0.50000000  0.29618604  1
  Se  Se5  4  0.07862123  0.00000000  0.64660844  1
  Se  Se6  4  0.16902632  0.50000000  0.99926416  1
  Se  Se7  4  0.22737997  0.50000000  0.64180112  1
