# generated using pymatgen
data_TbAs2Pd
_symmetry_space_group_name_H-M   P-3m1
_cell_length_a   5.64190785
_cell_length_b   5.64190785
_cell_length_c   18.04312593
_cell_angle_alpha   90.00000000
_cell_angle_beta   90.00000000
_cell_angle_gamma   120.00000000
_symmetry_Int_Tables_number   164
_chemical_formula_structural   TbAs2Pd
_chemical_formula_sum   'Tb6 As12 Pd6'
_cell_volume   497.38695316
_cell_formula_units_Z   6
loop_
 _symmetry_equiv_pos_site_id
 _symmetry_equiv_pos_as_xyz
  1  'x, y, z'
  2  '-x, -y, -z'
  3  '-y, x-y, z'
  4  'y, -x+y, -z'
  5  '-x+y, -x, z'
  6  'x-y, x, -z'
  7  'y, x, -z'
  8  '-y, -x, z'
  9  'x-y, -y, -z'
  10  '-x+y, y, z'
  11  '-x, -x+y, -z'
  12  'x, x-y, z'
loop_
 _atom_site_type_symbol
 _atom_site_label
 _atom_site_symmetry_multiplicity
 _atom_site_fract_x
 _atom_site_fract_y
 _atom_site_fract_z
 _atom_site_occupancy
  Tb  Tb0  2  0.33333333  0.66666667  0.03938748  1
  Tb  Tb1  2  0.33333333  0.66666667  0.24344878  1
  Tb  Tb2  2  0.33333333  0.66666667  0.45786245  1
  As  As3  6  0.17557693  0.35115386  0.88145550  1
  As  As4  2  0.00000000  0.00000000  0.27728036  1
  As  As5  2  0.33333333  0.66666667  0.71937456  1
  As  As6  1  0.00000000  0.00000000  0.00000000  1
  As  As7  1  0.00000000  0.00000000  0.50000000  1
  Pd  Pd8  6  0.16877199  0.33754397  0.61169872  1
