# generated using pymatgen
data_TbHgBr4
_symmetry_space_group_name_H-M   P2/c
_cell_length_a   7.64865736
_cell_length_b   8.93391553
_cell_length_c   7.33593551
_cell_angle_alpha   90.00000000
_cell_angle_beta   105.92864848
_cell_angle_gamma   90.00000000
_symmetry_Int_Tables_number   13
_chemical_formula_structural   TbHgBr4
_chemical_formula_sum   'Tb2 Hg2 Br8'
_cell_volume   482.03537167
_cell_formula_units_Z   2
loop_
 _symmetry_equiv_pos_site_id
 _symmetry_equiv_pos_as_xyz
  1  'x, y, z'
  2  '-x, -y, -z'
  3  '-x, y, -z+1/2'
  4  'x, -y, z+1/2'
loop_
 _atom_site_type_symbol
 _atom_site_label
 _atom_site_symmetry_multiplicity
 _atom_site_fract_x
 _atom_site_fract_y
 _atom_site_fract_z
 _atom_site_occupancy
  Tb  Tb0  2  0.50000000  0.37672782  0.75000000  1
  Hg  Hg1  2  0.00000000  0.18177192  0.25000000  1
  Br  Br2  4  0.27476529  0.41449654  0.99675968  1
  Br  Br3  4  0.30002766  0.13297659  0.56906198  1
