# generated using pymatgen
data_TbMnTe4
_symmetry_space_group_name_H-M   P2/c
_cell_length_a   6.44780292
_cell_length_b   7.42149202
_cell_length_c   7.28872977
_cell_angle_alpha   90.00000000
_cell_angle_beta   104.10159665
_cell_angle_gamma   90.00000000
_symmetry_Int_Tables_number   13
_chemical_formula_structural   TbMnTe4
_chemical_formula_sum   'Tb2 Mn2 Te8'
_cell_volume   338.27212899
_cell_formula_units_Z   2
loop_
 _symmetry_equiv_pos_site_id
 _symmetry_equiv_pos_as_xyz
  1  'x, y, z'
  2  '-x, -y, -z'
  3  '-x, y, -z+1/2'
  4  'x, -y, z+1/2'
loop_
 _atom_site_type_symbol
 _atom_site_label
 _atom_site_symmetry_multiplicity
 _atom_site_fract_x
 _atom_site_fract_y
 _atom_site_fract_z
 _atom_site_occupancy
  Tb  Tb0  2  0.00000000  0.24110900  0.75000000  1
  Mn  Mn1  2  0.50000000  0.35164729  0.25000000  1
  Te  Te2  4  0.23427772  0.09502200  0.14186161  1
  Te  Te3  4  0.26572923  0.43213555  0.48770517  1
