# generated using pymatgen
data_TbSnS4
_symmetry_space_group_name_H-M   P2/c
_cell_length_a   6.50368454
_cell_length_b   6.37277844
_cell_length_c   6.83459676
_cell_angle_alpha   90.00000000
_cell_angle_beta   101.02748260
_cell_angle_gamma   90.00000000
_symmetry_Int_Tables_number   13
_chemical_formula_structural   TbSnS4
_chemical_formula_sum   'Tb2 Sn2 S8'
_cell_volume   278.03995953
_cell_formula_units_Z   2
loop_
 _symmetry_equiv_pos_site_id
 _symmetry_equiv_pos_as_xyz
  1  'x, y, z'
  2  '-x, -y, -z'
  3  '-x, y, -z+1/2'
  4  'x, -y, z+1/2'
loop_
 _atom_site_type_symbol
 _atom_site_label
 _atom_site_symmetry_multiplicity
 _atom_site_fract_x
 _atom_site_fract_y
 _atom_site_fract_z
 _atom_site_occupancy
  Tb  Tb0  2  0.00000000  0.26709411  0.75000000  1
  Sn  Sn1  2  0.50000000  0.17005061  0.25000000  1
  S  S2  4  0.24581976  0.43761250  0.07935779  1
  S  S3  4  0.25125983  0.07656386  0.50060009  1
