# generated using pymatgen
data_TbTlTe2
_symmetry_space_group_name_H-M   C2/c
_cell_length_a   8.50539993
_cell_length_b   8.66885045
_cell_length_c   8.84216197
_cell_angle_alpha   90.00000000
_cell_angle_beta   115.39943643
_cell_angle_gamma   90.00000000
_symmetry_Int_Tables_number   15
_chemical_formula_structural   TbTlTe2
_chemical_formula_sum   'Tb4 Tl4 Te8'
_cell_volume   588.93277347
_cell_formula_units_Z   4
loop_
 _symmetry_equiv_pos_site_id
 _symmetry_equiv_pos_as_xyz
  1  'x, y, z'
  2  '-x, -y, -z'
  3  '-x, y, -z+1/2'
  4  'x, -y, z+1/2'
  5  'x+1/2, y+1/2, z'
  6  '-x+1/2, -y+1/2, -z'
  7  '-x+1/2, y+1/2, -z+1/2'
  8  'x+1/2, -y+1/2, z+1/2'
loop_
 _atom_site_type_symbol
 _atom_site_label
 _atom_site_symmetry_multiplicity
 _atom_site_fract_x
 _atom_site_fract_y
 _atom_site_fract_z
 _atom_site_occupancy
  Tb  Tb0  4  0.00000000  0.37932280  0.75000000  1
  Tl  Tl1  4  0.00000000  0.00000000  0.00000000  1
  Te  Te2  8  0.18734572  0.36231177  0.14672495  1
