# generated using pymatgen
data_TeSF4
_symmetry_space_group_name_H-M   P2/c
_cell_length_a   6.40099432
_cell_length_b   7.60555797
_cell_length_c   4.23920288
_cell_angle_alpha   90.00000000
_cell_angle_beta   90.93082327
_cell_angle_gamma   90.00000000
_symmetry_Int_Tables_number   13
_chemical_formula_structural   TeSF4
_chemical_formula_sum   'Te2 S2 F8'
_cell_volume   206.35044523
_cell_formula_units_Z   2
loop_
 _symmetry_equiv_pos_site_id
 _symmetry_equiv_pos_as_xyz
  1  'x, y, z'
  2  '-x, -y, -z'
  3  '-x, y, -z+1/2'
  4  'x, -y, z+1/2'
loop_
 _atom_site_type_symbol
 _atom_site_label
 _atom_site_symmetry_multiplicity
 _atom_site_fract_x
 _atom_site_fract_y
 _atom_site_fract_z
 _atom_site_occupancy
  Te  Te0  2  0.50000000  0.32704763  0.25000000  1
  S  S1  2  0.00000000  0.05313923  0.75000000  1
  F  F2  4  0.27495733  0.35799249  0.91773849  1
  F  F3  4  0.36749487  0.14607822  0.46616500  1
