# generated using pymatgen
data_TiCoP2
_symmetry_space_group_name_H-M   P2/m
_cell_length_a   5.72156312
_cell_length_b   3.52961740
_cell_length_c   8.78447051
_cell_angle_alpha   90.00000000
_cell_angle_beta   91.24422799
_cell_angle_gamma   90.00000000
_symmetry_Int_Tables_number   10
_chemical_formula_structural   TiCoP2
_chemical_formula_sum   'Ti3 Co3 P6'
_cell_volume   177.35992815
_cell_formula_units_Z   3
loop_
 _symmetry_equiv_pos_site_id
 _symmetry_equiv_pos_as_xyz
  1  'x, y, z'
  2  '-x, -y, -z'
  3  '-x, y, -z'
  4  'x, -y, z'
loop_
 _atom_site_type_symbol
 _atom_site_label
 _atom_site_symmetry_multiplicity
 _atom_site_fract_x
 _atom_site_fract_y
 _atom_site_fract_z
 _atom_site_occupancy
  Ti  Ti0  1  0.00000000  0.00000000  0.00000000  1
  Ti  Ti1  1  0.00000000  0.00000000  0.50000000  1
  Ti  Ti2  1  0.50000000  0.00000000  0.50000000  1
  Co  Co3  2  0.32147484  0.00000000  0.75512792  1
  Co  Co4  1  0.50000000  0.00000000  0.00000000  1
  P  P5  2  0.24734475  0.50000000  0.61128670  1
  P  P6  2  0.27760042  0.00000000  0.23845015  1
  P  P7  2  0.27929763  0.50000000  0.90998978  1
