# generated using pymatgen
data_TiCoI4
_symmetry_space_group_name_H-M   P2/c
_cell_length_a   6.42756923
_cell_length_b   7.97914213
_cell_length_c   7.00073659
_cell_angle_alpha   90.00000000
_cell_angle_beta   91.83218760
_cell_angle_gamma   90.00000000
_symmetry_Int_Tables_number   13
_chemical_formula_structural   TiCoI4
_chemical_formula_sum   'Ti2 Co2 I8'
_cell_volume   358.85963806
_cell_formula_units_Z   2
loop_
 _symmetry_equiv_pos_site_id
 _symmetry_equiv_pos_as_xyz
  1  'x, y, z'
  2  '-x, -y, -z'
  3  '-x, y, -z+1/2'
  4  'x, -y, z+1/2'
loop_
 _atom_site_type_symbol
 _atom_site_label
 _atom_site_symmetry_multiplicity
 _atom_site_fract_x
 _atom_site_fract_y
 _atom_site_fract_z
 _atom_site_occupancy
  Ti  Ti0  2  0.50000000  0.36005433  0.75000000  1
  Co  Co1  2  0.00000000  0.12865886  0.25000000  1
  I  I2  4  0.23898326  0.11684933  0.57917588  1
  I  I3  4  0.25315266  0.37872105  0.07825784  1
