# generated using pymatgen
data_TiFeO2
_symmetry_space_group_name_H-M   C2/c
_cell_length_a   6.13815126
_cell_length_b   6.08491802
_cell_length_c   5.07320239
_cell_angle_alpha   90.00000000
_cell_angle_beta   120.40020605
_cell_angle_gamma   90.00000000
_symmetry_Int_Tables_number   15
_chemical_formula_structural   TiFeO2
_chemical_formula_sum   'Ti4 Fe4 O8'
_cell_volume   163.43293359
_cell_formula_units_Z   4
loop_
 _symmetry_equiv_pos_site_id
 _symmetry_equiv_pos_as_xyz
  1  'x, y, z'
  2  '-x, -y, -z'
  3  '-x, y, -z+1/2'
  4  'x, -y, z+1/2'
  5  'x+1/2, y+1/2, z'
  6  '-x+1/2, -y+1/2, -z'
  7  '-x+1/2, y+1/2, -z+1/2'
  8  'x+1/2, -y+1/2, z+1/2'
loop_
 _atom_site_type_symbol
 _atom_site_label
 _atom_site_symmetry_multiplicity
 _atom_site_fract_x
 _atom_site_fract_y
 _atom_site_fract_z
 _atom_site_occupancy
  Ti  Ti0  4  0.00000000  0.39342535  0.75000000  1
  Fe  Fe1  4  0.00000000  0.12968730  0.25000000  1
  O  O2  8  0.24305141  0.13062944  0.75263871  1
