# generated using pymatgen
data_TiMoS4
_symmetry_space_group_name_H-M   P2/c
_cell_length_a   5.50076801
_cell_length_b   6.97821778
_cell_length_c   5.76481406
_cell_angle_alpha   90.00000000
_cell_angle_beta   90.58139636
_cell_angle_gamma   90.00000000
_symmetry_Int_Tables_number   13
_chemical_formula_structural   TiMoS4
_chemical_formula_sum   'Ti2 Mo2 S8'
_cell_volume   221.27420723
_cell_formula_units_Z   2
loop_
 _symmetry_equiv_pos_site_id
 _symmetry_equiv_pos_as_xyz
  1  'x, y, z'
  2  '-x, -y, -z'
  3  '-x, y, -z+1/2'
  4  'x, -y, z+1/2'
loop_
 _atom_site_type_symbol
 _atom_site_label
 _atom_site_symmetry_multiplicity
 _atom_site_fract_x
 _atom_site_fract_y
 _atom_site_fract_z
 _atom_site_occupancy
  Ti  Ti0  2  0.50000000  0.40444821  0.75000000  1
  Mo  Mo1  2  0.00000000  0.08586149  0.25000000  1
  S  S2  4  0.23693008  0.37581996  0.42732243  1
  S  S3  4  0.26407614  0.12398084  0.92111987  1
