# generated using pymatgen
data_TiVF4
_symmetry_space_group_name_H-M   P2/c
_cell_length_a   5.06070275
_cell_length_b   5.93450160
_cell_length_c   5.22393655
_cell_angle_alpha   90.00000000
_cell_angle_beta   90.98765030
_cell_angle_gamma   90.00000000
_symmetry_Int_Tables_number   13
_chemical_formula_structural   TiVF4
_chemical_formula_sum   'Ti2 V2 F8'
_cell_volume   156.86586442
_cell_formula_units_Z   2
loop_
 _symmetry_equiv_pos_site_id
 _symmetry_equiv_pos_as_xyz
  1  'x, y, z'
  2  '-x, -y, -z'
  3  '-x, y, -z+1/2'
  4  'x, -y, z+1/2'
loop_
 _atom_site_type_symbol
 _atom_site_label
 _atom_site_symmetry_multiplicity
 _atom_site_fract_x
 _atom_site_fract_y
 _atom_site_fract_z
 _atom_site_occupancy
  Ti  Ti0  2  0.50000000  0.13010700  0.75000000  1
  V  V1  2  0.00000000  0.35688669  0.25000000  1
  F  F2  4  0.23344004  0.37736529  0.58938796  1
  F  F3  4  0.25035731  0.12098348  0.07425586  1
