# generated using pymatgen
data_Tl4SeO
_symmetry_space_group_name_H-M   P2/c
_cell_length_a   8.22883910
_cell_length_b   7.34362875
_cell_length_c   12.70730240
_cell_angle_alpha   90.00000000
_cell_angle_beta   104.88439655
_cell_angle_gamma   90.00000000
_symmetry_Int_Tables_number   13
_chemical_formula_structural   Tl4SeO
_chemical_formula_sum   'Tl16 Se4 O4'
_cell_volume   742.13048660
_cell_formula_units_Z   4
loop_
 _symmetry_equiv_pos_site_id
 _symmetry_equiv_pos_as_xyz
  1  'x, y, z'
  2  '-x, -y, -z'
  3  '-x, y, -z+1/2'
  4  'x, -y, z+1/2'
loop_
 _atom_site_type_symbol
 _atom_site_label
 _atom_site_symmetry_multiplicity
 _atom_site_fract_x
 _atom_site_fract_y
 _atom_site_fract_z
 _atom_site_occupancy
  Tl  Tl0  4  0.07599726  0.30929760  0.09800447  1
  Tl  Tl1  4  0.29446872  0.10405011  0.91885100  1
  Tl  Tl2  4  0.30442501  0.26542088  0.64420778  1
  Tl  Tl3  4  0.37120541  0.38953399  0.37509557  1
  Se  Se4  2  0.00000000  0.37392456  0.75000000  1
  Se  Se5  2  0.50000000  0.08489732  0.25000000  1
  O  O6  4  0.19488930  0.18836001  0.44829308  1
