# generated using pymatgen
data_Tl8GeTe5
_symmetry_space_group_name_H-M   P-1
_cell_length_a   4.99554292
_cell_length_b   9.20666011
_cell_length_c   12.06393489
_cell_angle_alpha   68.62762832
_cell_angle_beta   79.70153369
_cell_angle_gamma   89.01550441
_symmetry_Int_Tables_number   2
_chemical_formula_structural   Tl8GeTe5
_chemical_formula_sum   'Tl8 Ge1 Te5'
_cell_volume   507.67054128
_cell_formula_units_Z   1
loop_
 _symmetry_equiv_pos_site_id
 _symmetry_equiv_pos_as_xyz
  1  'x, y, z'
  2  '-x, -y, -z'
loop_
 _atom_site_type_symbol
 _atom_site_label
 _atom_site_symmetry_multiplicity
 _atom_site_fract_x
 _atom_site_fract_y
 _atom_site_fract_z
 _atom_site_occupancy
  Tl  Tl0  2  0.04425574  0.74391487  0.88577443  1
  Tl  Tl1  2  0.27989380  0.44093851  0.41675991  1
  Tl  Tl2  2  0.32904429  0.99778555  0.34720938  1
  Tl  Tl3  2  0.43613297  0.77950371  0.10061124  1
  Ge  Ge4  1  0.00000000  0.00000000  0.00000000  1
  Te  Te5  2  0.15123229  0.22608243  0.73524676  1
  Te  Te6  2  0.20084585  0.76512789  0.62111693  1
  Te  Te7  1  0.50000000  0.50000000  0.00000000  1
