# generated using pymatgen
data_TlAgCl2
_symmetry_space_group_name_H-M   P-3m1
_cell_length_a   4.25090610
_cell_length_b   4.25090610
_cell_length_c   20.99797451
_cell_angle_alpha   90.00000000
_cell_angle_beta   90.00000000
_cell_angle_gamma   120.00000000
_symmetry_Int_Tables_number   164
_chemical_formula_structural   TlAgCl2
_chemical_formula_sum   'Tl3 Ag3 Cl6'
_cell_volume   328.60264838
_cell_formula_units_Z   3
loop_
 _symmetry_equiv_pos_site_id
 _symmetry_equiv_pos_as_xyz
  1  'x, y, z'
  2  '-x, -y, -z'
  3  '-y, x-y, z'
  4  'y, -x+y, -z'
  5  '-x+y, -x, z'
  6  'x-y, x, -z'
  7  'y, x, -z'
  8  '-y, -x, z'
  9  'x-y, -y, -z'
  10  '-x+y, y, z'
  11  '-x, -x+y, -z'
  12  'x, x-y, z'
loop_
 _atom_site_type_symbol
 _atom_site_label
 _atom_site_symmetry_multiplicity
 _atom_site_fract_x
 _atom_site_fract_y
 _atom_site_fract_z
 _atom_site_occupancy
  Tl  Tl0  2  0.33333333  0.66666667  0.19609894  1
  Tl  Tl1  1  0.00000000  0.00000000  0.00000000  1
  Ag  Ag2  2  0.33333333  0.66666667  0.63735179  1
  Ag  Ag3  1  0.00000000  0.00000000  0.50000000  1
  Cl  Cl4  2  0.00000000  0.00000000  0.29428697  1
  Cl  Cl5  2  0.33333333  0.66666667  0.43092602  1
  Cl  Cl6  2  0.33333333  0.66666667  0.90201592  1
