# generated using pymatgen
data_TlAsO4
_symmetry_space_group_name_H-M   P2/c
_cell_length_a   6.39336449
_cell_length_b   5.46582194
_cell_length_c   10.35050805
_cell_angle_alpha   90.00000000
_cell_angle_beta   104.68687572
_cell_angle_gamma   90.00000000
_symmetry_Int_Tables_number   13
_chemical_formula_structural   TlAsO4
_chemical_formula_sum   'Tl4 As4 O16'
_cell_volume   349.88023280
_cell_formula_units_Z   4
loop_
 _symmetry_equiv_pos_site_id
 _symmetry_equiv_pos_as_xyz
  1  'x, y, z'
  2  '-x, -y, -z'
  3  '-x, y, -z+1/2'
  4  'x, -y, z+1/2'
loop_
 _atom_site_type_symbol
 _atom_site_label
 _atom_site_symmetry_multiplicity
 _atom_site_fract_x
 _atom_site_fract_y
 _atom_site_fract_z
 _atom_site_occupancy
  Tl  Tl0  2  0.00000000  0.34397339  0.75000000  1
  Tl  Tl1  2  0.50000000  0.07246251  0.25000000  1
  As  As2  4  0.21208182  0.20081185  0.44140729  1
  O  O3  4  0.03465121  0.34036848  0.11697313  1
  O  O4  4  0.23834711  0.09119028  0.87668733  1
  O  O5  4  0.25708838  0.17571780  0.61302081  1
  O  O6  4  0.40320976  0.35499666  0.37980183  1
