# generated using pymatgen
data_TlAsI4
_symmetry_space_group_name_H-M   P2/c
_cell_length_a   8.10230775
_cell_length_b   8.92553805
_cell_length_c   7.91345731
_cell_angle_alpha   90.00000000
_cell_angle_beta   104.39008199
_cell_angle_gamma   90.00000000
_symmetry_Int_Tables_number   13
_chemical_formula_structural   TlAsI4
_chemical_formula_sum   'Tl2 As2 I8'
_cell_volume   554.32646634
_cell_formula_units_Z   2
loop_
 _symmetry_equiv_pos_site_id
 _symmetry_equiv_pos_as_xyz
  1  'x, y, z'
  2  '-x, -y, -z'
  3  '-x, y, -z+1/2'
  4  'x, -y, z+1/2'
loop_
 _atom_site_type_symbol
 _atom_site_label
 _atom_site_symmetry_multiplicity
 _atom_site_fract_x
 _atom_site_fract_y
 _atom_site_fract_z
 _atom_site_occupancy
  Tl  Tl0  2  0.00000000  0.34822486  0.25000000  1
  As  As1  2  0.50000000  0.34055080  0.75000000  1
  I  I2  4  0.28646177  0.38406902  0.99568646  1
  I  I3  4  0.29391657  0.13581217  0.56274237  1
