# generated using pymatgen
data_TlIr5O8
_symmetry_space_group_name_H-M   C2/m
_cell_length_a   15.84077051
_cell_length_b   3.17427493
_cell_length_c   7.79168121
_cell_angle_alpha   90.00000000
_cell_angle_beta   107.59376397
_cell_angle_gamma   90.00000000
_symmetry_Int_Tables_number   12
_chemical_formula_structural   TlIr5O8
_chemical_formula_sum   'Tl2 Ir10 O16'
_cell_volume   373.46231993
_cell_formula_units_Z   2
loop_
 _symmetry_equiv_pos_site_id
 _symmetry_equiv_pos_as_xyz
  1  'x, y, z'
  2  '-x, -y, -z'
  3  '-x, y, -z'
  4  'x, -y, z'
  5  'x+1/2, y+1/2, z'
  6  '-x+1/2, -y+1/2, -z'
  7  '-x+1/2, y+1/2, -z'
  8  'x+1/2, -y+1/2, z'
loop_
 _atom_site_type_symbol
 _atom_site_label
 _atom_site_symmetry_multiplicity
 _atom_site_fract_x
 _atom_site_fract_y
 _atom_site_fract_z
 _atom_site_occupancy
  Tl  Tl0  2  0.00000000  0.00000000  0.00000000  1
  Ir  Ir1  4  0.15971528  0.00000000  0.44583736  1
  Ir  Ir2  4  0.20190979  0.00000000  0.82441173  1
  Ir  Ir3  2  0.00000000  0.50000000  0.50000000  1
  O  O4  4  0.08158337  0.00000000  0.61093654  1
  O  O5  4  0.08232100  0.50000000  0.33139192  1
  O  O6  4  0.17993235  0.50000000  0.97271350  1
  O  O7  4  0.23423911  0.50000000  0.66196117  1
