# generated using pymatgen
data_TlWCl4
_symmetry_space_group_name_H-M   P2/c
_cell_length_a   6.71675504
_cell_length_b   8.40797987
_cell_length_c   6.54357531
_cell_angle_alpha   90.00000000
_cell_angle_beta   90.85115065
_cell_angle_gamma   90.00000000
_symmetry_Int_Tables_number   13
_chemical_formula_structural   TlWCl4
_chemical_formula_sum   'Tl2 W2 Cl8'
_cell_volume   369.50332944
_cell_formula_units_Z   2
loop_
 _symmetry_equiv_pos_site_id
 _symmetry_equiv_pos_as_xyz
  1  'x, y, z'
  2  '-x, -y, -z'
  3  '-x, y, -z+1/2'
  4  'x, -y, z+1/2'
loop_
 _atom_site_type_symbol
 _atom_site_label
 _atom_site_symmetry_multiplicity
 _atom_site_fract_x
 _atom_site_fract_y
 _atom_site_fract_z
 _atom_site_occupancy
  Tl  Tl0  2  0.00000000  0.36281877  0.75000000  1
  W  W1  2  0.50000000  0.11586702  0.25000000  1
  Cl  Cl2  4  0.28220656  0.31698336  0.37750359  1
  Cl  Cl3  4  0.30184441  0.09240769  0.92996277  1
