# generated using pymatgen
data_Tm2TeS
_symmetry_space_group_name_H-M   C2/c
_cell_length_a   8.21206084
_cell_length_b   16.22855012
_cell_length_c   6.95459739
_cell_angle_alpha   90.00000000
_cell_angle_beta   124.10635794
_cell_angle_gamma   90.00000000
_symmetry_Int_Tables_number   15
_chemical_formula_structural   Tm2TeS
_chemical_formula_sum   'Tm16 Te8 S8'
_cell_volume   767.42019127
_cell_formula_units_Z   8
loop_
 _symmetry_equiv_pos_site_id
 _symmetry_equiv_pos_as_xyz
  1  'x, y, z'
  2  '-x, -y, -z'
  3  '-x, y, -z+1/2'
  4  'x, -y, z+1/2'
  5  'x+1/2, y+1/2, z'
  6  '-x+1/2, -y+1/2, -z'
  7  '-x+1/2, y+1/2, -z+1/2'
  8  'x+1/2, -y+1/2, z+1/2'
loop_
 _atom_site_type_symbol
 _atom_site_label
 _atom_site_symmetry_multiplicity
 _atom_site_fract_x
 _atom_site_fract_y
 _atom_site_fract_z
 _atom_site_occupancy
  Tm  Tm0  8  0.18900343  0.43880139  0.21719700  1
  Tm  Tm1  8  0.23041106  0.31401519  0.71328709  1
  Te  Te2  4  0.00000000  0.05323239  0.25000000  1
  Te  Te3  4  0.00000000  0.17871543  0.75000000  1
  S  S4  4  0.00000000  0.30418603  0.25000000  1
  S  S5  4  0.00000000  0.42846147  0.75000000  1
