# generated using pymatgen
data_TmAlN2
_symmetry_space_group_name_H-M   C2/c
_cell_length_a   8.93790096
_cell_length_b   8.32289238
_cell_length_c   10.91089768
_cell_angle_alpha   90.00000000
_cell_angle_beta   97.50319241
_cell_angle_gamma   90.00000000
_symmetry_Int_Tables_number   15
_chemical_formula_structural   TmAlN2
_chemical_formula_sum   'Tm16 Al16 N32'
_cell_volume   804.70311003
_cell_formula_units_Z   16
loop_
 _symmetry_equiv_pos_site_id
 _symmetry_equiv_pos_as_xyz
  1  'x, y, z'
  2  '-x, -y, -z'
  3  '-x, y, -z+1/2'
  4  'x, -y, z+1/2'
  5  'x+1/2, y+1/2, z'
  6  '-x+1/2, -y+1/2, -z'
  7  '-x+1/2, y+1/2, -z+1/2'
  8  'x+1/2, -y+1/2, z+1/2'
loop_
 _atom_site_type_symbol
 _atom_site_label
 _atom_site_symmetry_multiplicity
 _atom_site_fract_x
 _atom_site_fract_y
 _atom_site_fract_z
 _atom_site_occupancy
  Tm  Tm0  8  0.10071080  0.21319742  0.38300555  1
  Tm  Tm1  8  0.22269821  0.39584503  0.11616612  1
  Al  Al2  8  0.08397356  0.16033567  0.64208096  1
  Al  Al3  8  0.13204581  0.43299366  0.85108158  1
  N  N4  8  0.06655770  0.27860505  0.96425330  1
  N  N5  8  0.21304840  0.30901988  0.73629912  1
  N  N6  8  0.22852622  0.06929004  0.54474789  1
  N  N7  4  0.00000000  0.01546421  0.75000000  1
  N  N8  4  0.00000000  0.41887828  0.25000000  1
