# generated using pymatgen
data_TmCdSe2
_symmetry_space_group_name_H-M   C2/c
_cell_length_a   8.64916877
_cell_length_b   15.59563861
_cell_length_c   7.14550686
_cell_angle_alpha   90.00000000
_cell_angle_beta   118.07390093
_cell_angle_gamma   90.00000000
_symmetry_Int_Tables_number   15
_chemical_formula_structural   TmCdSe2
_chemical_formula_sum   'Tm8 Cd8 Se16'
_cell_volume   850.44688832
_cell_formula_units_Z   8
loop_
 _symmetry_equiv_pos_site_id
 _symmetry_equiv_pos_as_xyz
  1  'x, y, z'
  2  '-x, -y, -z'
  3  '-x, y, -z+1/2'
  4  'x, -y, z+1/2'
  5  'x+1/2, y+1/2, z'
  6  '-x+1/2, -y+1/2, -z'
  7  '-x+1/2, y+1/2, -z+1/2'
  8  'x+1/2, -y+1/2, z+1/2'
loop_
 _atom_site_type_symbol
 _atom_site_label
 _atom_site_symmetry_multiplicity
 _atom_site_fract_x
 _atom_site_fract_y
 _atom_site_fract_z
 _atom_site_occupancy
  Tm  Tm0  4  0.00000000  0.29370181  0.25000000  1
  Tm  Tm1  4  0.00000000  0.43460905  0.75000000  1
  Cd  Cd2  4  0.00000000  0.07754410  0.25000000  1
  Cd  Cd3  4  0.00000000  0.16532077  0.75000000  1
  Se  Se4  8  0.19401783  0.29468543  0.70137177  1
  Se  Se5  8  0.20194218  0.43260000  0.19622188  1
