# generated using pymatgen
data_TmCrI4
_symmetry_space_group_name_H-M   P2/c
_cell_length_a   6.99420676
_cell_length_b   8.66611951
_cell_length_c   7.40650057
_cell_angle_alpha   90.00000000
_cell_angle_beta   94.60594150
_cell_angle_gamma   90.00000000
_symmetry_Int_Tables_number   13
_chemical_formula_structural   TmCrI4
_chemical_formula_sum   'Tm2 Cr2 I8'
_cell_volume   447.47770499
_cell_formula_units_Z   2
loop_
 _symmetry_equiv_pos_site_id
 _symmetry_equiv_pos_as_xyz
  1  'x, y, z'
  2  '-x, -y, -z'
  3  '-x, y, -z+1/2'
  4  'x, -y, z+1/2'
loop_
 _atom_site_type_symbol
 _atom_site_label
 _atom_site_symmetry_multiplicity
 _atom_site_fract_x
 _atom_site_fract_y
 _atom_site_fract_z
 _atom_site_occupancy
  Tm  Tm0  2  0.00000000  0.36209349  0.75000000  1
  Cr  Cr1  2  0.50000000  0.13003910  0.25000000  1
  I  I2  4  0.24306844  0.38241135  0.43144119  1
  I  I3  4  0.25980294  0.12025166  0.92279769  1
