# generated using pymatgen
data_TmIrI4
_symmetry_space_group_name_H-M   P2/c
_cell_length_a   6.71449425
_cell_length_b   8.27168191
_cell_length_c   7.20027334
_cell_angle_alpha   90.00000000
_cell_angle_beta   91.69978198
_cell_angle_gamma   90.00000000
_symmetry_Int_Tables_number   13
_chemical_formula_structural   TmIrI4
_chemical_formula_sum   'Tm2 Ir2 I8'
_cell_volume   399.72836928
_cell_formula_units_Z   2
loop_
 _symmetry_equiv_pos_site_id
 _symmetry_equiv_pos_as_xyz
  1  'x, y, z'
  2  '-x, -y, -z'
  3  '-x, y, -z+1/2'
  4  'x, -y, z+1/2'
loop_
 _atom_site_type_symbol
 _atom_site_label
 _atom_site_symmetry_multiplicity
 _atom_site_fract_x
 _atom_site_fract_y
 _atom_site_fract_z
 _atom_site_occupancy
  Tm  Tm0  2  0.50000000  0.35822522  0.75000000  1
  Ir  Ir1  2  0.00000000  0.13141395  0.25000000  1
  I  I2  4  0.22860062  0.10756408  0.57150670  1
  I  I3  4  0.24226045  0.37340084  0.08647437  1
