# generated using pymatgen
data_TmMoI4
_symmetry_space_group_name_H-M   P2/c
_cell_length_a   7.16148499
_cell_length_b   8.88763095
_cell_length_c   7.46825942
_cell_angle_alpha   90.00000000
_cell_angle_beta   96.81703036
_cell_angle_gamma   90.00000000
_symmetry_Int_Tables_number   13
_chemical_formula_structural   TmMoI4
_chemical_formula_sum   'Tm2 Mo2 I8'
_cell_volume   471.98396536
_cell_formula_units_Z   2
loop_
 _symmetry_equiv_pos_site_id
 _symmetry_equiv_pos_as_xyz
  1  'x, y, z'
  2  '-x, -y, -z'
  3  '-x, y, -z+1/2'
  4  'x, -y, z+1/2'
loop_
 _atom_site_type_symbol
 _atom_site_label
 _atom_site_symmetry_multiplicity
 _atom_site_fract_x
 _atom_site_fract_y
 _atom_site_fract_z
 _atom_site_occupancy
  Tm  Tm0  2  0.50000000  0.36522209  0.25000000  1
  Mo  Mo1  2  0.00000000  0.15526694  0.75000000  1
  I  I2  4  0.24336654  0.12437837  0.08213855  1
  I  I3  4  0.26069082  0.38730533  0.55739454  1
