# generated using pymatgen
data_TmMoCl4
_symmetry_space_group_name_H-M   P2/c
_cell_length_a   6.95909728
_cell_length_b   8.64610328
_cell_length_c   6.74862569
_cell_angle_alpha   90.00000000
_cell_angle_beta   104.97027944
_cell_angle_gamma   90.00000000
_symmetry_Int_Tables_number   13
_chemical_formula_structural   TmMoCl4
_chemical_formula_sum   'Tm2 Mo2 Cl8'
_cell_volume   392.27691047
_cell_formula_units_Z   2
loop_
 _symmetry_equiv_pos_site_id
 _symmetry_equiv_pos_as_xyz
  1  'x, y, z'
  2  '-x, -y, -z'
  3  '-x, y, -z+1/2'
  4  'x, -y, z+1/2'
loop_
 _atom_site_type_symbol
 _atom_site_label
 _atom_site_symmetry_multiplicity
 _atom_site_fract_x
 _atom_site_fract_y
 _atom_site_fract_z
 _atom_site_occupancy
  Tm  Tm0  2  0.50000000  0.12707617  0.75000000  1
  Mo  Mo1  2  0.00000000  0.32286433  0.25000000  1
  Cl  Cl2  4  0.26914338  0.34702481  0.56687675  1
  Cl  Cl3  4  0.28356723  0.08953872  0.01307608  1
