# generated using pymatgen
data_TmPdN2
_symmetry_space_group_name_H-M   C2/c
_cell_length_a   6.26364935
_cell_length_b   12.96605846
_cell_length_c   5.65045873
_cell_angle_alpha   90.00000000
_cell_angle_beta   119.95901287
_cell_angle_gamma   90.00000000
_symmetry_Int_Tables_number   15
_chemical_formula_structural   TmPdN2
_chemical_formula_sum   'Tm8 Pd8 N16'
_cell_volume   397.58406783
_cell_formula_units_Z   8
loop_
 _symmetry_equiv_pos_site_id
 _symmetry_equiv_pos_as_xyz
  1  'x, y, z'
  2  '-x, -y, -z'
  3  '-x, y, -z+1/2'
  4  'x, -y, z+1/2'
  5  'x+1/2, y+1/2, z'
  6  '-x+1/2, -y+1/2, -z'
  7  '-x+1/2, y+1/2, -z+1/2'
  8  'x+1/2, -y+1/2, z+1/2'
loop_
 _atom_site_type_symbol
 _atom_site_label
 _atom_site_symmetry_multiplicity
 _atom_site_fract_x
 _atom_site_fract_y
 _atom_site_fract_z
 _atom_site_occupancy
  Tm  Tm0  4  0.00000000  0.06085315  0.75000000  1
  Tm  Tm1  4  0.00000000  0.31674205  0.75000000  1
  Pd  Pd2  4  0.00000000  0.18856001  0.25000000  1
  Pd  Pd3  4  0.00000000  0.43683812  0.25000000  1
  N  N4  8  0.22239430  0.31241063  0.24015810  1
  N  N5  8  0.23578250  0.06278140  0.22002154  1
