# generated using pymatgen
data_TmPdS2
_symmetry_space_group_name_H-M   Cmmm
_cell_length_a   7.72333237
_cell_length_b   10.72224738
_cell_length_c   3.75790890
_cell_angle_alpha   90.00000000
_cell_angle_beta   90.00000000
_cell_angle_gamma   90.00000000
_symmetry_Int_Tables_number   65
_chemical_formula_structural   TmPdS2
_chemical_formula_sum   'Tm4 Pd4 S8'
_cell_volume   311.19799859
_cell_formula_units_Z   4
loop_
 _symmetry_equiv_pos_site_id
 _symmetry_equiv_pos_as_xyz
  1  'x, y, z'
  2  '-x, -y, -z'
  3  '-x, -y, z'
  4  'x, y, -z'
  5  'x, -y, -z'
  6  '-x, y, z'
  7  '-x, y, -z'
  8  'x, -y, z'
  9  'x+1/2, y+1/2, z'
  10  '-x+1/2, -y+1/2, -z'
  11  '-x+1/2, -y+1/2, z'
  12  'x+1/2, y+1/2, -z'
  13  'x+1/2, -y+1/2, -z'
  14  '-x+1/2, y+1/2, z'
  15  '-x+1/2, y+1/2, -z'
  16  'x+1/2, -y+1/2, z'
loop_
 _atom_site_type_symbol
 _atom_site_label
 _atom_site_symmetry_multiplicity
 _atom_site_fract_x
 _atom_site_fract_y
 _atom_site_fract_z
 _atom_site_occupancy
  Tm  Tm0  4  0.25000000  0.25000000  0.00000000  1
  Pd  Pd1  2  0.00000000  0.00000000  0.50000000  1
  Pd  Pd2  2  0.00000000  0.50000000  0.00000000  1
  S  S3  4  0.00000000  0.29503936  0.50000000  1
  S  S4  4  0.19450610  0.00000000  0.00000000  1
