# generated using pymatgen
data_TmPtF4
_symmetry_space_group_name_H-M   P2/c
_cell_length_a   6.13754630
_cell_length_b   5.55540420
_cell_length_c   5.09489009
_cell_angle_alpha   90.00000000
_cell_angle_beta   99.09232445
_cell_angle_gamma   90.00000000
_symmetry_Int_Tables_number   13
_chemical_formula_structural   TmPtF4
_chemical_formula_sum   'Tm2 Pt2 F8'
_cell_volume   171.53540576
_cell_formula_units_Z   2
loop_
 _symmetry_equiv_pos_site_id
 _symmetry_equiv_pos_as_xyz
  1  'x, y, z'
  2  '-x, -y, -z'
  3  '-x, y, -z+1/2'
  4  'x, -y, z+1/2'
loop_
 _atom_site_type_symbol
 _atom_site_label
 _atom_site_symmetry_multiplicity
 _atom_site_fract_x
 _atom_site_fract_y
 _atom_site_fract_z
 _atom_site_occupancy
  Tm  Tm0  2  0.50000000  0.28484693  0.25000000  1
  Pt  Pt1  2  0.00000000  0.06733576  0.75000000  1
  F  F2  4  0.30419909  0.44183338  0.52074348  1
  F  F3  4  0.32656461  0.06605653  0.87308310  1
