# generated using pymatgen
data_TmRhCl4
_symmetry_space_group_name_H-M   P2/c
_cell_length_a   5.98071053
_cell_length_b   7.36939572
_cell_length_c   6.64607653
_cell_angle_alpha   90.00000000
_cell_angle_beta   91.34879780
_cell_angle_gamma   90.00000000
_symmetry_Int_Tables_number   13
_chemical_formula_structural   TmRhCl4
_chemical_formula_sum   'Tm2 Rh2 Cl8'
_cell_volume   292.83949545
_cell_formula_units_Z   2
loop_
 _symmetry_equiv_pos_site_id
 _symmetry_equiv_pos_as_xyz
  1  'x, y, z'
  2  '-x, -y, -z'
  3  '-x, y, -z+1/2'
  4  'x, -y, z+1/2'
loop_
 _atom_site_type_symbol
 _atom_site_label
 _atom_site_symmetry_multiplicity
 _atom_site_fract_x
 _atom_site_fract_y
 _atom_site_fract_z
 _atom_site_occupancy
  Tm  Tm0  2  0.00000000  0.34258936  0.75000000  1
  Rh  Rh1  2  0.50000000  0.13464051  0.25000000  1
  Cl  Cl2  4  0.23802741  0.38510760  0.42331444  1
  Cl  Cl3  4  0.26554856  0.11532250  0.92098012  1
