# generated using pymatgen
data_TmSbO4
_symmetry_space_group_name_H-M   P2_1/c
_cell_length_a   7.61893886
_cell_length_b   5.32948947
_cell_length_c   7.51007514
_cell_angle_alpha   90.00000000
_cell_angle_beta   98.43607368
_cell_angle_gamma   90.00000000
_symmetry_Int_Tables_number   14
_chemical_formula_structural   TmSbO4
_chemical_formula_sum   'Tm4 Sb4 O16'
_cell_volume   301.64753272
_cell_formula_units_Z   4
loop_
 _symmetry_equiv_pos_site_id
 _symmetry_equiv_pos_as_xyz
  1  'x, y, z'
  2  '-x, -y, -z'
  3  '-x, y+1/2, -z+1/2'
  4  'x, -y+1/2, z+1/2'
loop_
 _atom_site_type_symbol
 _atom_site_label
 _atom_site_symmetry_multiplicity
 _atom_site_fract_x
 _atom_site_fract_y
 _atom_site_fract_z
 _atom_site_occupancy
  Tm  Tm0  4  0.14512433  0.72677667  0.38429757  1
  Sb  Sb1  4  0.33606864  0.23339243  0.19064742  1
  O  O2  4  0.11024506  0.02758076  0.17652273  1
  O  O3  4  0.17949804  0.51927185  0.11663561  1
  O  O4  4  0.32701467  0.11125049  0.93680203  1
  O  O5  4  0.42964758  0.59490507  0.80960990  1
