# generated using pymatgen
data_TmSbTe4
_symmetry_space_group_name_H-M   P2/c
_cell_length_a   6.56681276
_cell_length_b   8.40025832
_cell_length_c   7.81143247
_cell_angle_alpha   90.00000000
_cell_angle_beta   92.37792306
_cell_angle_gamma   90.00000000
_symmetry_Int_Tables_number   13
_chemical_formula_structural   TmSbTe4
_chemical_formula_sum   'Tm2 Sb2 Te8'
_cell_volume   430.53039860
_cell_formula_units_Z   2
loop_
 _symmetry_equiv_pos_site_id
 _symmetry_equiv_pos_as_xyz
  1  'x, y, z'
  2  '-x, -y, -z'
  3  '-x, y, -z+1/2'
  4  'x, -y, z+1/2'
loop_
 _atom_site_type_symbol
 _atom_site_label
 _atom_site_symmetry_multiplicity
 _atom_site_fract_x
 _atom_site_fract_y
 _atom_site_fract_z
 _atom_site_occupancy
  Tm  Tm0  2  0.50000000  0.13517473  0.25000000  1
  Sb  Sb1  2  0.00000000  0.34004785  0.75000000  1
  Te  Te2  4  0.23172507  0.08945549  0.93318740  1
  Te  Te3  4  0.31587322  0.41421610  0.46208957  1
