# generated using pymatgen
data_TmScN2
_symmetry_space_group_name_H-M   C2/c
_cell_length_a   6.61823256
_cell_length_b   13.22393891
_cell_length_c   5.71539198
_cell_angle_alpha   90.00000000
_cell_angle_beta   125.32768007
_cell_angle_gamma   90.00000000
_symmetry_Int_Tables_number   15
_chemical_formula_structural   TmScN2
_chemical_formula_sum   'Tm8 Sc8 N16'
_cell_volume   408.09721398
_cell_formula_units_Z   8
loop_
 _symmetry_equiv_pos_site_id
 _symmetry_equiv_pos_as_xyz
  1  'x, y, z'
  2  '-x, -y, -z'
  3  '-x, y, -z+1/2'
  4  'x, -y, z+1/2'
  5  'x+1/2, y+1/2, z'
  6  '-x+1/2, -y+1/2, -z'
  7  '-x+1/2, y+1/2, -z+1/2'
  8  'x+1/2, -y+1/2, z+1/2'
loop_
 _atom_site_type_symbol
 _atom_site_label
 _atom_site_symmetry_multiplicity
 _atom_site_fract_x
 _atom_site_fract_y
 _atom_site_fract_z
 _atom_site_occupancy
  Tm  Tm0  4  0.00000000  0.31129368  0.25000000  1
  Tm  Tm1  4  0.00000000  0.43631190  0.75000000  1
  Sc  Sc2  4  0.00000000  0.06064509  0.25000000  1
  Sc  Sc3  4  0.00000000  0.18549470  0.75000000  1
  N  N4  8  0.23746678  0.06243695  0.74204810  1
  N  N5  8  0.24570016  0.18734092  0.24170971  1
