# generated using pymatgen
data_TmZnSe2
_symmetry_space_group_name_H-M   P2/m
_cell_length_a   3.88616413
_cell_length_b   3.62812721
_cell_length_c   15.24290612
_cell_angle_alpha   90.00000000
_cell_angle_beta   93.40936024
_cell_angle_gamma   90.00000000
_symmetry_Int_Tables_number   10
_chemical_formula_structural   TmZnSe2
_chemical_formula_sum   'Tm2 Zn2 Se4'
_cell_volume   214.53694528
_cell_formula_units_Z   2
loop_
 _symmetry_equiv_pos_site_id
 _symmetry_equiv_pos_as_xyz
  1  'x, y, z'
  2  '-x, -y, -z'
  3  '-x, y, -z'
  4  'x, -y, z'
loop_
 _atom_site_type_symbol
 _atom_site_label
 _atom_site_symmetry_multiplicity
 _atom_site_fract_x
 _atom_site_fract_y
 _atom_site_fract_z
 _atom_site_occupancy
  Tm  Tm0  2  0.14780578  0.00000000  0.79647120  1
  Zn  Zn1  2  0.38042217  0.00000000  0.57025386  1
  Se  Se2  2  0.06982371  0.50000000  0.65226333  1
  Se  Se3  2  0.33646790  0.50000000  0.13477473  1
