# generated using pymatgen
data_VBr2N
_symmetry_space_group_name_H-M   C2/c
_cell_length_a   14.80894353
_cell_length_b   3.94582286
_cell_length_c   7.15387248
_cell_angle_alpha   90.00000000
_cell_angle_beta   103.95829318
_cell_angle_gamma   90.00000000
_symmetry_Int_Tables_number   15
_chemical_formula_structural   VBr2N
_chemical_formula_sum   'V4 Br8 N4'
_cell_volume   405.68193839
_cell_formula_units_Z   4
loop_
 _symmetry_equiv_pos_site_id
 _symmetry_equiv_pos_as_xyz
  1  'x, y, z'
  2  '-x, -y, -z'
  3  '-x, y, -z+1/2'
  4  'x, -y, z+1/2'
  5  'x+1/2, y+1/2, z'
  6  '-x+1/2, -y+1/2, -z'
  7  '-x+1/2, y+1/2, -z+1/2'
  8  'x+1/2, -y+1/2, z+1/2'
loop_
 _atom_site_type_symbol
 _atom_site_label
 _atom_site_symmetry_multiplicity
 _atom_site_fract_x
 _atom_site_fract_y
 _atom_site_fract_z
 _atom_site_occupancy
  V  V0  4  0.00000000  0.08117062  0.75000000  1
  Br  Br1  8  0.12455504  0.00025953  0.56213462  1
  N  N2  4  0.00000000  0.48616541  0.75000000  1
