# generated using pymatgen
data_VBr4F
_symmetry_space_group_name_H-M   Pc
_cell_length_a   6.90414920
_cell_length_b   7.98199488
_cell_length_c   6.59496890
_cell_angle_alpha   90.00000000
_cell_angle_beta   101.59064617
_cell_angle_gamma   90.00000000
_symmetry_Int_Tables_number   7
_chemical_formula_structural   VBr4F
_chemical_formula_sum   'V2 Br8 F2'
_cell_volume   356.03009981
_cell_formula_units_Z   2
loop_
 _symmetry_equiv_pos_site_id
 _symmetry_equiv_pos_as_xyz
  1  'x, y, z'
  2  'x, -y, z+1/2'
loop_
 _atom_site_type_symbol
 _atom_site_label
 _atom_site_symmetry_multiplicity
 _atom_site_fract_x
 _atom_site_fract_y
 _atom_site_fract_z
 _atom_site_occupancy
  V  V0  2  0.50846902  0.36226684  0.25069160  1
  Br  Br1  2  0.27208999  0.16859077  0.09744661  1
  Br  Br2  2  0.32104330  0.38670549  0.55314270  1
  Br  Br3  2  0.71984428  0.40819119  0.99071263  1
  Br  Br4  2  0.75631797  0.15853343  0.39788891  1
  F  F5  2  0.92218189  0.19696917  0.71044504  1
