# generated using pymatgen
data_VCdCl4
_symmetry_space_group_name_H-M   P2/c
_cell_length_a   5.90520248
_cell_length_b   7.33151200
_cell_length_c   6.45439463
_cell_angle_alpha   90.00000000
_cell_angle_beta   92.80827620
_cell_angle_gamma   90.00000000
_symmetry_Int_Tables_number   13
_chemical_formula_structural   VCdCl4
_chemical_formula_sum   'V2 Cd2 Cl8'
_cell_volume   279.10138279
_cell_formula_units_Z   2
loop_
 _symmetry_equiv_pos_site_id
 _symmetry_equiv_pos_as_xyz
  1  'x, y, z'
  2  '-x, -y, -z'
  3  '-x, y, -z+1/2'
  4  'x, -y, z+1/2'
loop_
 _atom_site_type_symbol
 _atom_site_label
 _atom_site_symmetry_multiplicity
 _atom_site_fract_x
 _atom_site_fract_y
 _atom_site_fract_z
 _atom_site_occupancy
  V  V0  2  0.00000000  0.13260722  0.75000000  1
  Cd  Cd1  2  0.50000000  0.34504129  0.25000000  1
  Cl  Cl2  4  0.22868793  0.10407620  0.43758196  1
  Cl  Cl3  4  0.24757505  0.37479905  0.91040817  1
