# generated using pymatgen
data_VCoAs2
_symmetry_space_group_name_H-M   P2/m
_cell_length_a   5.59311661
_cell_length_b   3.73888308
_cell_length_c   8.98986138
_cell_angle_alpha   90.00000000
_cell_angle_beta   95.87394575
_cell_angle_gamma   90.00000000
_symmetry_Int_Tables_number   10
_chemical_formula_structural   VCoAs2
_chemical_formula_sum   'V3 Co3 As6'
_cell_volume   187.00898121
_cell_formula_units_Z   3
loop_
 _symmetry_equiv_pos_site_id
 _symmetry_equiv_pos_as_xyz
  1  'x, y, z'
  2  '-x, -y, -z'
  3  '-x, y, -z'
  4  'x, -y, z'
loop_
 _atom_site_type_symbol
 _atom_site_label
 _atom_site_symmetry_multiplicity
 _atom_site_fract_x
 _atom_site_fract_y
 _atom_site_fract_z
 _atom_site_occupancy
  V  V0  1  0.00000000  0.00000000  0.00000000  1
  V  V1  1  0.50000000  0.00000000  0.00000000  1
  V  V2  1  0.50000000  0.00000000  0.50000000  1
  Co  Co3  2  0.28898705  0.00000000  0.74439703  1
  Co  Co4  1  0.00000000  0.00000000  0.50000000  1
  As  As5  2  0.23355003  0.50000000  0.57758320  1
  As  As6  2  0.23363467  0.50000000  0.89514715  1
  As  As7  2  0.27635199  0.00000000  0.24221984  1
