# generated using pymatgen
data_VGeSe4
_symmetry_space_group_name_H-M   P2/c
_cell_length_a   5.53768242
_cell_length_b   7.61967429
_cell_length_c   6.37887268
_cell_angle_alpha   90.00000000
_cell_angle_beta   90.13214887
_cell_angle_gamma   90.00000000
_symmetry_Int_Tables_number   13
_chemical_formula_structural   VGeSe4
_chemical_formula_sum   'V2 Ge2 Se8'
_cell_volume   269.15796285
_cell_formula_units_Z   2
loop_
 _symmetry_equiv_pos_site_id
 _symmetry_equiv_pos_as_xyz
  1  'x, y, z'
  2  '-x, -y, -z'
  3  '-x, y, -z+1/2'
  4  'x, -y, z+1/2'
loop_
 _atom_site_type_symbol
 _atom_site_label
 _atom_site_symmetry_multiplicity
 _atom_site_fract_x
 _atom_site_fract_y
 _atom_site_fract_z
 _atom_site_occupancy
  V  V0  2  0.00000000  0.16094711  0.75000000  1
  Ge  Ge1  2  0.50000000  0.32631641  0.25000000  1
  Se  Se2  4  0.24219803  0.08577120  0.06449251  1
  Se  Se3  4  0.24239562  0.37845442  0.59738868  1
