# generated using pymatgen
data_VHgF4
_symmetry_space_group_name_H-M   P2/c
_cell_length_a   5.57432816
_cell_length_b   6.84232314
_cell_length_c   5.23499704
_cell_angle_alpha   90.00000000
_cell_angle_beta   90.06877420
_cell_angle_gamma   90.00000000
_symmetry_Int_Tables_number   13
_chemical_formula_structural   VHgF4
_chemical_formula_sum   'V2 Hg2 F8'
_cell_volume   199.66973432
_cell_formula_units_Z   2
loop_
 _symmetry_equiv_pos_site_id
 _symmetry_equiv_pos_as_xyz
  1  'x, y, z'
  2  '-x, -y, -z'
  3  '-x, y, -z+1/2'
  4  'x, -y, z+1/2'
loop_
 _atom_site_type_symbol
 _atom_site_label
 _atom_site_symmetry_multiplicity
 _atom_site_fract_x
 _atom_site_fract_y
 _atom_site_fract_z
 _atom_site_occupancy
  V  V0  2  0.00000000  0.37190896  0.25000000  1
  Hg  Hg1  2  0.50000000  0.09713054  0.75000000  1
  F  F2  4  0.19598130  0.17741828  0.09224417  1
  F  F3  4  0.19846566  0.42063193  0.55595117  1
