# generated using pymatgen
data_VI2Cl
_symmetry_space_group_name_H-M   C2/c
_cell_length_a   11.38598187
_cell_length_b   7.01583987
_cell_length_c   7.41833541
_cell_angle_alpha   90.00000000
_cell_angle_beta   126.62422470
_cell_angle_gamma   90.00000000
_symmetry_Int_Tables_number   15
_chemical_formula_structural   VI2Cl
_chemical_formula_sum   'V4 I8 Cl4'
_cell_volume   475.59470453
_cell_formula_units_Z   4
loop_
 _symmetry_equiv_pos_site_id
 _symmetry_equiv_pos_as_xyz
  1  'x, y, z'
  2  '-x, -y, -z'
  3  '-x, y, -z+1/2'
  4  'x, -y, z+1/2'
  5  'x+1/2, y+1/2, z'
  6  '-x+1/2, -y+1/2, -z'
  7  '-x+1/2, y+1/2, -z+1/2'
  8  'x+1/2, -y+1/2, z+1/2'
loop_
 _atom_site_type_symbol
 _atom_site_label
 _atom_site_symmetry_multiplicity
 _atom_site_fract_x
 _atom_site_fract_y
 _atom_site_fract_z
 _atom_site_occupancy
  V  V0  4  0.25000000  0.25000000  0.50000000  1
  I  I1  8  0.17577301  0.41386645  0.75818889  1
  Cl  Cl2  4  0.00000000  0.13585673  0.25000000  1
