# generated using pymatgen
data_VPbBr4
_symmetry_space_group_name_H-M   P2/c
_cell_length_a   6.68181777
_cell_length_b   7.92151853
_cell_length_c   7.08661895
_cell_angle_alpha   90.00000000
_cell_angle_beta   92.74700770
_cell_angle_gamma   90.00000000
_symmetry_Int_Tables_number   13
_chemical_formula_structural   VPbBr4
_chemical_formula_sum   'V2 Pb2 Br8'
_cell_volume   374.66473038
_cell_formula_units_Z   2
loop_
 _symmetry_equiv_pos_site_id
 _symmetry_equiv_pos_as_xyz
  1  'x, y, z'
  2  '-x, -y, -z'
  3  '-x, y, -z+1/2'
  4  'x, -y, z+1/2'
loop_
 _atom_site_type_symbol
 _atom_site_label
 _atom_site_symmetry_multiplicity
 _atom_site_fract_x
 _atom_site_fract_y
 _atom_site_fract_z
 _atom_site_occupancy
  V  V0  2  0.00000000  0.37145296  0.25000000  1
  Pb  Pb1  2  0.50000000  0.16017634  0.75000000  1
  Br  Br2  4  0.21566156  0.40274239  0.94480568  1
  Br  Br3  4  0.23492799  0.12793652  0.39327036  1
