# generated using pymatgen
data_VRhF4
_symmetry_space_group_name_H-M   P2/c
_cell_length_a   4.89354864
_cell_length_b   5.85229802
_cell_length_c   5.58071918
_cell_angle_alpha   90.00000000
_cell_angle_beta   94.86719358
_cell_angle_gamma   90.00000000
_symmetry_Int_Tables_number   13
_chemical_formula_structural   VRhF4
_chemical_formula_sum   'V2 Rh2 F8'
_cell_volume   159.24713738
_cell_formula_units_Z   2
loop_
 _symmetry_equiv_pos_site_id
 _symmetry_equiv_pos_as_xyz
  1  'x, y, z'
  2  '-x, -y, -z'
  3  '-x, y, -z+1/2'
  4  'x, -y, z+1/2'
loop_
 _atom_site_type_symbol
 _atom_site_label
 _atom_site_symmetry_multiplicity
 _atom_site_fract_x
 _atom_site_fract_y
 _atom_site_fract_z
 _atom_site_occupancy
  V  V0  2  0.50000000  0.34518496  0.25000000  1
  Rh  Rh1  2  0.00000000  0.14862303  0.75000000  1
  F  F2  4  0.25020686  0.10580569  0.39859291  1
  F  F3  4  0.27076370  0.39390991  0.91147928  1
