# generated using pymatgen
data_VSBr
_symmetry_space_group_name_H-M   R3m
_cell_length_a   7.09277334
_cell_length_b   7.09277334
_cell_length_c   16.98074927
_cell_angle_alpha   90.00000000
_cell_angle_beta   90.00000000
_cell_angle_gamma   120.00000000
_symmetry_Int_Tables_number   160
_chemical_formula_structural   VSBr
_chemical_formula_sum   'V12 S12 Br12'
_cell_volume   739.80905759
_cell_formula_units_Z   12
loop_
 _symmetry_equiv_pos_site_id
 _symmetry_equiv_pos_as_xyz
  1  'x, y, z'
  2  '-y, x-y, z'
  3  '-x+y, -x, z'
  4  '-y, -x, z'
  5  '-x+y, y, z'
  6  'x, x-y, z'
  7  'x+2/3, y+1/3, z+1/3'
  8  '-y+2/3, x-y+1/3, z+1/3'
  9  '-x+y+2/3, -x+1/3, z+1/3'
  10  '-y+2/3, -x+1/3, z+1/3'
  11  '-x+y+2/3, y+1/3, z+1/3'
  12  'x+2/3, x-y+1/3, z+1/3'
  13  'x+1/3, y+2/3, z+2/3'
  14  '-y+1/3, x-y+2/3, z+2/3'
  15  '-x+y+1/3, -x+2/3, z+2/3'
  16  '-y+1/3, -x+2/3, z+2/3'
  17  '-x+y+1/3, y+2/3, z+2/3'
  18  'x+1/3, x-y+2/3, z+2/3'
loop_
 _atom_site_type_symbol
 _atom_site_label
 _atom_site_symmetry_multiplicity
 _atom_site_fract_x
 _atom_site_fract_y
 _atom_site_fract_z
 _atom_site_occupancy
  V  V0  9  0.06093864  0.53046932  0.38521760  1
  V  V1  3  0.00000000  0.00000000  0.84550303  1
  S  S2  9  0.00625019  0.50312510  0.12414884  1
  S  S3  3  0.00000000  0.00000000  0.62671491  1
  Br  Br4  9  0.01312788  0.50656394  0.62565517  1
  Br  Br5  3  0.00000000  0.00000000  0.12282110  1
