# generated using pymatgen
data_VSiS4
_symmetry_space_group_name_H-M   P2/c
_cell_length_a   5.36882293
_cell_length_b   6.70441209
_cell_length_c   5.75429633
_cell_angle_alpha   90.00000000
_cell_angle_beta   91.39340743
_cell_angle_gamma   90.00000000
_symmetry_Int_Tables_number   13
_chemical_formula_structural   VSiS4
_chemical_formula_sum   'V2 Si2 S8'
_cell_volume   207.06350540
_cell_formula_units_Z   2
loop_
 _symmetry_equiv_pos_site_id
 _symmetry_equiv_pos_as_xyz
  1  'x, y, z'
  2  '-x, -y, -z'
  3  '-x, y, -z+1/2'
  4  'x, -y, z+1/2'
loop_
 _atom_site_type_symbol
 _atom_site_label
 _atom_site_symmetry_multiplicity
 _atom_site_fract_x
 _atom_site_fract_y
 _atom_site_fract_z
 _atom_site_occupancy
  V  V0  2  0.50000000  0.09927446  0.75000000  1
  Si  Si1  2  0.00000000  0.39216082  0.25000000  1
  S  S2  4  0.23950884  0.11930432  0.07171460  1
  S  S3  4  0.24547811  0.38798896  0.56801260  1
