# generated using pymatgen
data_VSnCl4
_symmetry_space_group_name_H-M   P2/c
_cell_length_a   6.24049155
_cell_length_b   7.50000803
_cell_length_c   6.68703716
_cell_angle_alpha   90.00000000
_cell_angle_beta   92.58846002
_cell_angle_gamma   90.00000000
_symmetry_Int_Tables_number   13
_chemical_formula_structural   VSnCl4
_chemical_formula_sum   'V2 Sn2 Cl8'
_cell_volume   312.65899048
_cell_formula_units_Z   2
loop_
 _symmetry_equiv_pos_site_id
 _symmetry_equiv_pos_as_xyz
  1  'x, y, z'
  2  '-x, -y, -z'
  3  '-x, y, -z+1/2'
  4  'x, -y, z+1/2'
loop_
 _atom_site_type_symbol
 _atom_site_label
 _atom_site_symmetry_multiplicity
 _atom_site_fract_x
 _atom_site_fract_y
 _atom_site_fract_z
 _atom_site_occupancy
  V  V0  2  0.50000000  0.12807006  0.75000000  1
  Sn  Sn1  2  0.00000000  0.34274745  0.25000000  1
  Cl  Cl2  4  0.26140490  0.36951207  0.60706666  1
  Cl  Cl3  4  0.28395229  0.09804336  0.05592576  1
