# generated using pymatgen
data_VTeCl2
_symmetry_space_group_name_H-M   C2/c
_cell_length_a   11.54943539
_cell_length_b   6.22456966
_cell_length_c   6.10028735
_cell_angle_alpha   90.00000000
_cell_angle_beta   118.19725702
_cell_angle_gamma   90.00000000
_symmetry_Int_Tables_number   15
_chemical_formula_structural   VTeCl2
_chemical_formula_sum   'V4 Te4 Cl8'
_cell_volume   386.50667369
_cell_formula_units_Z   4
loop_
 _symmetry_equiv_pos_site_id
 _symmetry_equiv_pos_as_xyz
  1  'x, y, z'
  2  '-x, -y, -z'
  3  '-x, y, -z+1/2'
  4  'x, -y, z+1/2'
  5  'x+1/2, y+1/2, z'
  6  '-x+1/2, -y+1/2, -z'
  7  '-x+1/2, y+1/2, -z+1/2'
  8  'x+1/2, -y+1/2, z+1/2'
loop_
 _atom_site_type_symbol
 _atom_site_label
 _atom_site_symmetry_multiplicity
 _atom_site_fract_x
 _atom_site_fract_y
 _atom_site_fract_z
 _atom_site_occupancy
  V  V0  4  0.25000000  0.25000000  0.00000000  1
  Te  Te1  4  0.00000000  0.43862948  0.75000000  1
  Cl  Cl2  8  0.17766763  0.06985403  0.25407738  1
