# generated using pymatgen
data_VWBr4
_symmetry_space_group_name_H-M   P2/c
_cell_length_a   6.04415658
_cell_length_b   7.42263550
_cell_length_c   6.53523189
_cell_angle_alpha   90.00000000
_cell_angle_beta   90.82949253
_cell_angle_gamma   90.00000000
_symmetry_Int_Tables_number   13
_chemical_formula_structural   VWBr4
_chemical_formula_sum   'V2 W2 Br8'
_cell_volume   293.16311573
_cell_formula_units_Z   2
loop_
 _symmetry_equiv_pos_site_id
 _symmetry_equiv_pos_as_xyz
  1  'x, y, z'
  2  '-x, -y, -z'
  3  '-x, y, -z+1/2'
  4  'x, -y, z+1/2'
loop_
 _atom_site_type_symbol
 _atom_site_label
 _atom_site_symmetry_multiplicity
 _atom_site_fract_x
 _atom_site_fract_y
 _atom_site_fract_z
 _atom_site_occupancy
  V  V0  2  0.50000000  0.13527602  0.75000000  1
  W  W1  2  0.00000000  0.37167357  0.25000000  1
  Br  Br2  4  0.24269756  0.38285088  0.92107668  1
  Br  Br3  4  0.25279230  0.12075266  0.41777238  1
