# generated using pymatgen
data_VWCl4
_symmetry_space_group_name_H-M   P2/c
_cell_length_a   5.69143003
_cell_length_b   6.99071449
_cell_length_c   6.14388010
_cell_angle_alpha   90.00000000
_cell_angle_beta   90.65384943
_cell_angle_gamma   90.00000000
_symmetry_Int_Tables_number   13
_chemical_formula_structural   VWCl4
_chemical_formula_sum   'V2 W2 Cl8'
_cell_volume   244.43163836
_cell_formula_units_Z   2
loop_
 _symmetry_equiv_pos_site_id
 _symmetry_equiv_pos_as_xyz
  1  'x, y, z'
  2  '-x, -y, -z'
  3  '-x, y, -z+1/2'
  4  'x, -y, z+1/2'
loop_
 _atom_site_type_symbol
 _atom_site_label
 _atom_site_symmetry_multiplicity
 _atom_site_fract_x
 _atom_site_fract_y
 _atom_site_fract_z
 _atom_site_occupancy
  V  V0  2  0.00000000  0.36361606  0.75000000  1
  W  W1  2  0.50000000  0.12792055  0.25000000  1
  Cl  Cl2  4  0.24518665  0.37758016  0.08301040  1
  Cl  Cl3  4  0.25733201  0.12046914  0.58264316  1
