# generated using pymatgen
data_YAgI4
_symmetry_space_group_name_H-M   P2/c
_cell_length_a   10.42604203
_cell_length_b   4.35914190
_cell_length_c   15.24184778
_cell_angle_alpha   90.00000000
_cell_angle_beta   131.99182350
_cell_angle_gamma   90.00000000
_symmetry_Int_Tables_number   13
_chemical_formula_structural   YAgI4
_chemical_formula_sum   'Y2 Ag2 I8'
_cell_volume   514.85786579
_cell_formula_units_Z   2
loop_
 _symmetry_equiv_pos_site_id
 _symmetry_equiv_pos_as_xyz
  1  'x, y, z'
  2  '-x, -y, -z'
  3  '-x, y, -z+1/2'
  4  'x, -y, z+1/2'
loop_
 _atom_site_type_symbol
 _atom_site_label
 _atom_site_symmetry_multiplicity
 _atom_site_fract_x
 _atom_site_fract_y
 _atom_site_fract_z
 _atom_site_occupancy
  Y  Y0  2  0.00000000  0.00000000  0.00000000  1
  Ag  Ag1  2  0.50000000  0.48262310  0.75000000  1
  I  I2  4  0.15893414  0.49915737  0.95623983  1
  I  I3  4  0.31483177  0.01429113  0.26168747  1
