# generated using pymatgen
data_YAuO2
_symmetry_space_group_name_H-M   P2/m
_cell_length_a   6.10699281
_cell_length_b   3.43580174
_cell_length_c   6.19102191
_cell_angle_alpha   90.00000000
_cell_angle_beta   96.31462589
_cell_angle_gamma   90.00000000
_symmetry_Int_Tables_number   10
_chemical_formula_structural   YAuO2
_chemical_formula_sum   'Y2 Au2 O4'
_cell_volume   129.11446981
_cell_formula_units_Z   2
loop_
 _symmetry_equiv_pos_site_id
 _symmetry_equiv_pos_as_xyz
  1  'x, y, z'
  2  '-x, -y, -z'
  3  '-x, y, -z'
  4  'x, -y, z'
loop_
 _atom_site_type_symbol
 _atom_site_label
 _atom_site_symmetry_multiplicity
 _atom_site_fract_x
 _atom_site_fract_y
 _atom_site_fract_z
 _atom_site_occupancy
  Y  Y0  1  0.50000000  0.00000000  0.50000000  1
  Y  Y1  1  0.50000000  0.50000000  0.00000000  1
  Au  Au2  2  0.01212705  0.50000000  0.74458590  1
  O  O3  2  0.32130884  0.00000000  0.81061535  1
  O  O4  2  0.33214045  0.50000000  0.31118808  1
