# generated using pymatgen
data_YbBrCl2
_symmetry_space_group_name_H-M   P2/m
_cell_length_a   5.40444405
_cell_length_b   5.10375941
_cell_length_c   10.56848077
_cell_angle_alpha   90.00000000
_cell_angle_beta   103.00431054
_cell_angle_gamma   90.00000000
_symmetry_Int_Tables_number   10
_chemical_formula_structural   YbBrCl2
_chemical_formula_sum   'Yb2 Br2 Cl4'
_cell_volume   284.03389439
_cell_formula_units_Z   2
loop_
 _symmetry_equiv_pos_site_id
 _symmetry_equiv_pos_as_xyz
  1  'x, y, z'
  2  '-x, -y, -z'
  3  '-x, y, -z'
  4  'x, -y, z'
loop_
 _atom_site_type_symbol
 _atom_site_label
 _atom_site_symmetry_multiplicity
 _atom_site_fract_x
 _atom_site_fract_y
 _atom_site_fract_z
 _atom_site_occupancy
  Yb  Yb0  2  0.18071523  0.50000000  0.84059797  1
  Br  Br1  2  0.12243143  0.00000000  0.73473688  1
  Cl  Cl2  2  0.29603273  0.50000000  0.10399903  1
  Cl  Cl3  2  0.44432167  0.50000000  0.40222944  1
