# generated using pymatgen
data_YbCdI4
_symmetry_space_group_name_H-M   P2/c
_cell_length_a   7.05221776
_cell_length_b   8.72980218
_cell_length_c   7.69435165
_cell_angle_alpha   90.00000000
_cell_angle_beta   90.28845831
_cell_angle_gamma   90.00000000
_symmetry_Int_Tables_number   13
_chemical_formula_structural   YbCdI4
_chemical_formula_sum   'Yb2 Cd2 I8'
_cell_volume   473.69264720
_cell_formula_units_Z   2
loop_
 _symmetry_equiv_pos_site_id
 _symmetry_equiv_pos_as_xyz
  1  'x, y, z'
  2  '-x, -y, -z'
  3  '-x, y, -z+1/2'
  4  'x, -y, z+1/2'
loop_
 _atom_site_type_symbol
 _atom_site_label
 _atom_site_symmetry_multiplicity
 _atom_site_fract_x
 _atom_site_fract_y
 _atom_site_fract_z
 _atom_site_occupancy
  Yb  Yb0  2  0.00000000  0.35919502  0.25000000  1
  Cd  Cd1  2  0.50000000  0.13670313  0.75000000  1
  I  I2  4  0.25036001  0.38523198  0.58223794  1
  I  I3  4  0.26003001  0.10990721  0.06879091  1
