# generated using pymatgen
data_YbMgBr4
_symmetry_space_group_name_H-M   P2/c
_cell_length_a   6.44398476
_cell_length_b   7.83277652
_cell_length_c   6.98522496
_cell_angle_alpha   90.00000000
_cell_angle_beta   91.45232053
_cell_angle_gamma   90.00000000
_symmetry_Int_Tables_number   13
_chemical_formula_structural   YbMgBr4
_chemical_formula_sum   'Yb2 Mg2 Br8'
_cell_volume   352.46102746
_cell_formula_units_Z   2
loop_
 _symmetry_equiv_pos_site_id
 _symmetry_equiv_pos_as_xyz
  1  'x, y, z'
  2  '-x, -y, -z'
  3  '-x, y, -z+1/2'
  4  'x, -y, z+1/2'
loop_
 _atom_site_type_symbol
 _atom_site_label
 _atom_site_symmetry_multiplicity
 _atom_site_fract_x
 _atom_site_fract_y
 _atom_site_fract_z
 _atom_site_occupancy
  Yb  Yb0  2  0.00000000  0.34806511  0.25000000  1
  Mg  Mg1  2  0.50000000  0.13683308  0.75000000  1
  Br  Br2  4  0.25066691  0.38096702  0.59375239  1
  Br  Br3  4  0.27039414  0.10675318  0.06597254  1
