# generated using pymatgen
data_YbMnF4
_symmetry_space_group_name_H-M   P2/c
_cell_length_a   5.10552234
_cell_length_b   5.90860285
_cell_length_c   5.49813904
_cell_angle_alpha   90.00000000
_cell_angle_beta   92.02216116
_cell_angle_gamma   90.00000000
_symmetry_Int_Tables_number   13
_chemical_formula_structural   YbMnF4
_chemical_formula_sum   'Yb2 Mn2 F8'
_cell_volume   165.75634415
_cell_formula_units_Z   2
loop_
 _symmetry_equiv_pos_site_id
 _symmetry_equiv_pos_as_xyz
  1  'x, y, z'
  2  '-x, -y, -z'
  3  '-x, y, -z+1/2'
  4  'x, -y, z+1/2'
loop_
 _atom_site_type_symbol
 _atom_site_label
 _atom_site_symmetry_multiplicity
 _atom_site_fract_x
 _atom_site_fract_y
 _atom_site_fract_z
 _atom_site_occupancy
  Yb  Yb0  2  0.50000000  0.18921369  0.75000000  1
  Mn  Mn1  2  0.00000000  0.32411766  0.25000000  1
  F  F2  4  0.22957387  0.41235761  0.94289023  1
  F  F3  4  0.26888004  0.09623885  0.41340160  1
