# generated using pymatgen
data_YBr2Cl
_symmetry_space_group_name_H-M   P2/m
_cell_length_a   7.73176018
_cell_length_b   3.83397337
_cell_length_c   10.10091589
_cell_angle_alpha   90.00000000
_cell_angle_beta   96.04978077
_cell_angle_gamma   90.00000000
_symmetry_Int_Tables_number   10
_chemical_formula_structural   YBr2Cl
_chemical_formula_sum   'Y2 Br4 Cl2'
_cell_volume   297.75752452
_cell_formula_units_Z   2
loop_
 _symmetry_equiv_pos_site_id
 _symmetry_equiv_pos_as_xyz
  1  'x, y, z'
  2  '-x, -y, -z'
  3  '-x, y, -z'
  4  'x, -y, z'
loop_
 _atom_site_type_symbol
 _atom_site_label
 _atom_site_symmetry_multiplicity
 _atom_site_fract_x
 _atom_site_fract_y
 _atom_site_fract_z
 _atom_site_occupancy
  Y  Y0  1  0.00000000  0.00000000  0.50000000  1
  Y  Y1  1  0.00000000  0.50000000  0.00000000  1
  Br  Br2  2  0.14784426  0.50000000  0.26866803  1
  Br  Br3  2  0.24242637  0.00000000  0.94451642  1
  Cl  Cl4  2  0.22579705  0.50000000  0.59061535  1
