# generated using pymatgen
data_YbTe4As
_symmetry_space_group_name_H-M   P2/c
_cell_length_a   6.12225956
_cell_length_b   7.93198950
_cell_length_c   8.12822137
_cell_angle_alpha   90.00000000
_cell_angle_beta   95.66663155
_cell_angle_gamma   90.00000000
_symmetry_Int_Tables_number   13
_chemical_formula_structural   YbTe4As
_chemical_formula_sum   'Yb2 Te8 As2'
_cell_volume   392.79133477
_cell_formula_units_Z   2
loop_
 _symmetry_equiv_pos_site_id
 _symmetry_equiv_pos_as_xyz
  1  'x, y, z'
  2  '-x, -y, -z'
  3  '-x, y, -z+1/2'
  4  'x, -y, z+1/2'
loop_
 _atom_site_type_symbol
 _atom_site_label
 _atom_site_symmetry_multiplicity
 _atom_site_fract_x
 _atom_site_fract_y
 _atom_site_fract_z
 _atom_site_occupancy
  Yb  Yb0  2  0.00000000  0.24310044  0.25000000  1
  Te  Te1  4  0.22553492  0.45250913  0.96555740  1
  Te  Te2  4  0.27407140  0.04997190  0.55607722  1
  As  As3  2  0.50000000  0.28624819  0.75000000  1
