# generated using pymatgen
data_YH2Cl
_symmetry_space_group_name_H-M   P-1
_cell_length_a   5.61634308
_cell_length_b   6.51501451
_cell_length_c   7.05860329
_cell_angle_alpha   80.25175874
_cell_angle_beta   72.54642125
_cell_angle_gamma   71.33364411
_symmetry_Int_Tables_number   2
_chemical_formula_structural   YH2Cl
_chemical_formula_sum   'Y4 H8 Cl4'
_cell_volume   232.65731593
_cell_formula_units_Z   4
loop_
 _symmetry_equiv_pos_site_id
 _symmetry_equiv_pos_as_xyz
  1  'x, y, z'
  2  '-x, -y, -z'
loop_
 _atom_site_type_symbol
 _atom_site_label
 _atom_site_symmetry_multiplicity
 _atom_site_fract_x
 _atom_site_fract_y
 _atom_site_fract_z
 _atom_site_occupancy
  Y  Y0  2  0.08483234  0.24750962  0.35202094  1
  Y  Y1  2  0.26064133  0.75805703  0.07753327  1
  H  H2  2  0.00457169  0.93315646  0.36163657  1
  H  H3  2  0.04026749  0.59627211  0.34692914  1
  H  H4  2  0.05360952  0.12487481  0.07662616  1
  H  H5  2  0.30819044  0.39849403  0.06729568  1
  Cl  Cl6  2  0.40191171  0.61415253  0.69271204  1
  Cl  Cl7  2  0.47522070  0.06375674  0.76009136  1
