# generated using pymatgen
data_YHgF4
_symmetry_space_group_name_H-M   P2/c
_cell_length_a   6.17722722
_cell_length_b   6.56096370
_cell_length_c   5.77328094
_cell_angle_alpha   90.00000000
_cell_angle_beta   93.20722423
_cell_angle_gamma   90.00000000
_symmetry_Int_Tables_number   13
_chemical_formula_structural   YHgF4
_chemical_formula_sum   'Y2 Hg2 F8'
_cell_volume   233.61630070
_cell_formula_units_Z   2
loop_
 _symmetry_equiv_pos_site_id
 _symmetry_equiv_pos_as_xyz
  1  'x, y, z'
  2  '-x, -y, -z'
  3  '-x, y, -z+1/2'
  4  'x, -y, z+1/2'
loop_
 _atom_site_type_symbol
 _atom_site_label
 _atom_site_symmetry_multiplicity
 _atom_site_fract_x
 _atom_site_fract_y
 _atom_site_fract_z
 _atom_site_occupancy
  Y  Y0  2  0.50000000  0.34401834  0.25000000  1
  Hg  Hg1  2  0.00000000  0.08452468  0.75000000  1
  F  F2  4  0.28758441  0.13502540  0.07047208  1
  F  F3  4  0.31454599  0.40659398  0.55560677  1
