# generated using pymatgen
data_YI2Cl
_symmetry_space_group_name_H-M   P2/m
_cell_length_a   8.61491140
_cell_length_b   3.98716427
_cell_length_c   10.76037611
_cell_angle_alpha   90.00000000
_cell_angle_beta   97.69517062
_cell_angle_gamma   90.00000000
_symmetry_Int_Tables_number   10
_chemical_formula_structural   YI2Cl
_chemical_formula_sum   'Y2 I4 Cl2'
_cell_volume   366.28036235
_cell_formula_units_Z   2
loop_
 _symmetry_equiv_pos_site_id
 _symmetry_equiv_pos_as_xyz
  1  'x, y, z'
  2  '-x, -y, -z'
  3  '-x, y, -z'
  4  'x, -y, z'
loop_
 _atom_site_type_symbol
 _atom_site_label
 _atom_site_symmetry_multiplicity
 _atom_site_fract_x
 _atom_site_fract_y
 _atom_site_fract_z
 _atom_site_occupancy
  Y  Y0  1  0.00000000  0.00000000  0.50000000  1
  Y  Y1  1  0.00000000  0.50000000  0.00000000  1
  I  I2  2  0.15709769  0.50000000  0.27284861  1
  I  I3  2  0.24079412  0.00000000  0.94152914  1
  Cl  Cl4  2  0.19528374  0.50000000  0.59258011  1
