# generated using pymatgen
data_YI2F
_symmetry_space_group_name_H-M   P2/m
_cell_length_a   7.60101660
_cell_length_b   3.82827113
_cell_length_c   9.60019961
_cell_angle_alpha   90.00000000
_cell_angle_beta   90.79957344
_cell_angle_gamma   90.00000000
_symmetry_Int_Tables_number   10
_chemical_formula_structural   YI2F
_chemical_formula_sum   'Y2 I4 F2'
_cell_volume   279.32663020
_cell_formula_units_Z   2
loop_
 _symmetry_equiv_pos_site_id
 _symmetry_equiv_pos_as_xyz
  1  'x, y, z'
  2  '-x, -y, -z'
  3  '-x, y, -z'
  4  'x, -y, z'
loop_
 _atom_site_type_symbol
 _atom_site_label
 _atom_site_symmetry_multiplicity
 _atom_site_fract_x
 _atom_site_fract_y
 _atom_site_fract_z
 _atom_site_occupancy
  Y  Y0  1  0.00000000  0.00000000  0.50000000  1
  Y  Y1  1  0.00000000  0.50000000  0.00000000  1
  I  I2  2  0.23543586  0.50000000  0.25729295  1
  I  I3  2  0.24770067  0.00000000  0.86480948  1
  F  F4  2  0.13835868  0.50000000  0.57284632  1
