# generated using pymatgen
data_YTaO4
_symmetry_space_group_name_H-M   P2/c
_cell_length_a   5.14697308
_cell_length_b   5.52585134
_cell_length_c   5.33484287
_cell_angle_alpha   90.00000000
_cell_angle_beta   96.47040922
_cell_angle_gamma   90.00000000
_symmetry_Int_Tables_number   13
_chemical_formula_structural   YTaO4
_chemical_formula_sum   'Y2 Ta2 O8'
_cell_volume   150.76394858
_cell_formula_units_Z   2
loop_
 _symmetry_equiv_pos_site_id
 _symmetry_equiv_pos_as_xyz
  1  'x, y, z'
  2  '-x, -y, -z'
  3  '-x, y, -z+1/2'
  4  'x, -y, z+1/2'
loop_
 _atom_site_type_symbol
 _atom_site_label
 _atom_site_symmetry_multiplicity
 _atom_site_fract_x
 _atom_site_fract_y
 _atom_site_fract_z
 _atom_site_occupancy
  Y  Y0  2  0.00000000  0.26799502  0.25000000  1
  Ta  Ta1  2  0.50000000  0.19296125  0.75000000  1
  O  O2  4  0.24987369  0.41338603  0.59936096  1
  O  O3  4  0.26941441  0.06612995  0.99724261  1
