# generated using pymatgen
data_Zn2SO
_symmetry_space_group_name_H-M   C2/c
_cell_length_a   11.98697344
_cell_length_b   5.41709344
_cell_length_c   8.22061734
_cell_angle_alpha   90.00000000
_cell_angle_beta   101.76910632
_cell_angle_gamma   90.00000000
_symmetry_Int_Tables_number   15
_chemical_formula_structural   Zn2SO
_chemical_formula_sum   'Zn16 S8 O8'
_cell_volume   522.58027998
_cell_formula_units_Z   8
loop_
 _symmetry_equiv_pos_site_id
 _symmetry_equiv_pos_as_xyz
  1  'x, y, z'
  2  '-x, -y, -z'
  3  '-x, y, -z+1/2'
  4  'x, -y, z+1/2'
  5  'x+1/2, y+1/2, z'
  6  '-x+1/2, -y+1/2, -z'
  7  '-x+1/2, y+1/2, -z+1/2'
  8  'x+1/2, -y+1/2, z+1/2'
loop_
 _atom_site_type_symbol
 _atom_site_label
 _atom_site_symmetry_multiplicity
 _atom_site_fract_x
 _atom_site_fract_y
 _atom_site_fract_z
 _atom_site_occupancy
  Zn  Zn0  8  0.02871999  0.29633540  0.90469250  1
  Zn  Zn1  4  0.00000000  0.11766973  0.25000000  1
  Zn  Zn2  4  0.25000000  0.25000000  0.50000000  1
  S  S3  8  0.20567903  0.15111113  0.07829166  1
  O  O4  8  0.07444826  0.33985232  0.42969686  1
