# generated using pymatgen
data_ZnCdO2
_symmetry_space_group_name_H-M   Pm
_cell_length_a   3.17141775
_cell_length_b   3.59755587
_cell_length_c   8.55444836
_cell_angle_alpha   90.00000000
_cell_angle_beta   97.33657559
_cell_angle_gamma   90.00000000
_symmetry_Int_Tables_number   6
_chemical_formula_structural   ZnCdO2
_chemical_formula_sum   'Zn2 Cd2 O4'
_cell_volume   96.80167256
_cell_formula_units_Z   2
loop_
 _symmetry_equiv_pos_site_id
 _symmetry_equiv_pos_as_xyz
  1  'x, y, z'
  2  'x, -y, z'
loop_
 _atom_site_type_symbol
 _atom_site_label
 _atom_site_symmetry_multiplicity
 _atom_site_fract_x
 _atom_site_fract_y
 _atom_site_fract_z
 _atom_site_occupancy
  Zn  Zn0  1  0.34540183  0.50000000  0.61685057  1
  Zn  Zn1  1  0.83881879  0.00000000  0.39091501  1
  Cd  Cd2  1  0.27805733  0.50000000  0.14016665  1
  Cd  Cd3  1  0.79326738  0.00000000  0.86897852  1
  O  O4  1  0.10434344  0.50000000  0.38935232  1
  O  O5  1  0.26688901  0.50000000  0.85269824  1
  O  O6  1  0.63474312  0.00000000  0.60241134  1
  O  O7  1  0.73847910  0.00000000  0.13862735  1
