# generated using pymatgen
data_ZnGeCl4
_symmetry_space_group_name_H-M   P2/c
_cell_length_a   5.93008880
_cell_length_b   10.03150056
_cell_length_c   5.92308922
_cell_angle_alpha   90.00000000
_cell_angle_beta   101.38167144
_cell_angle_gamma   90.00000000
_symmetry_Int_Tables_number   13
_chemical_formula_structural   ZnGeCl4
_chemical_formula_sum   'Zn2 Ge2 Cl8'
_cell_volume   345.42168230
_cell_formula_units_Z   2
loop_
 _symmetry_equiv_pos_site_id
 _symmetry_equiv_pos_as_xyz
  1  'x, y, z'
  2  '-x, -y, -z'
  3  '-x, y, -z+1/2'
  4  'x, -y, z+1/2'
loop_
 _atom_site_type_symbol
 _atom_site_label
 _atom_site_symmetry_multiplicity
 _atom_site_fract_x
 _atom_site_fract_y
 _atom_site_fract_z
 _atom_site_occupancy
  Zn  Zn0  2  0.50000000  0.22648661  0.25000000  1
  Ge  Ge1  2  0.00000000  0.17394895  0.75000000  1
  Cl  Cl2  4  0.24447023  0.34679476  0.97023763  1
  Cl  Cl3  4  0.26986248  0.11349995  0.44938408  1
