# generated using pymatgen
data_ZnGeO2
_symmetry_space_group_name_H-M   P2/m
_cell_length_a   5.38728343
_cell_length_b   2.78091871
_cell_length_c   7.95989604
_cell_angle_alpha   90.00000000
_cell_angle_beta   91.41000410
_cell_angle_gamma   90.00000000
_symmetry_Int_Tables_number   10
_chemical_formula_structural   ZnGeO2
_chemical_formula_sum   'Zn2 Ge2 O4'
_cell_volume   119.21584842
_cell_formula_units_Z   2
loop_
 _symmetry_equiv_pos_site_id
 _symmetry_equiv_pos_as_xyz
  1  'x, y, z'
  2  '-x, -y, -z'
  3  '-x, y, -z'
  4  'x, -y, z'
loop_
 _atom_site_type_symbol
 _atom_site_label
 _atom_site_symmetry_multiplicity
 _atom_site_fract_x
 _atom_site_fract_y
 _atom_site_fract_z
 _atom_site_occupancy
  Zn  Zn0  2  0.15967455  0.00000000  0.63135966  1
  Ge  Ge1  2  0.33663358  0.00000000  0.20060938  1
  O  O2  2  0.12523768  0.50000000  0.35404866  1
  O  O3  2  0.40714350  0.50000000  0.72087105  1
