# generated using pymatgen
data_ZnIrS4
_symmetry_space_group_name_H-M   P2_1/c
_cell_length_a   5.78655931
_cell_length_b   5.86131778
_cell_length_c   5.96373104
_cell_angle_alpha   90.00000000
_cell_angle_beta   91.84236461
_cell_angle_gamma   90.00000000
_symmetry_Int_Tables_number   14
_chemical_formula_structural   ZnIrS4
_chemical_formula_sum   'Zn2 Ir2 S8'
_cell_volume   202.16648686
_cell_formula_units_Z   2
loop_
 _symmetry_equiv_pos_site_id
 _symmetry_equiv_pos_as_xyz
  1  'x, y, z'
  2  '-x, -y, -z'
  3  '-x, y+1/2, -z+1/2'
  4  'x, -y+1/2, z+1/2'
loop_
 _atom_site_type_symbol
 _atom_site_label
 _atom_site_symmetry_multiplicity
 _atom_site_fract_x
 _atom_site_fract_y
 _atom_site_fract_z
 _atom_site_occupancy
  Zn  Zn0  2  0.00000000  0.00000000  0.00000000  1
  Ir  Ir1  2  0.50000000  0.00000000  0.50000000  1
  S  S2  4  0.11765412  0.10048600  0.59794575  1
  S  S3  4  0.38488435  0.63477182  0.63957051  1
