# generated using pymatgen
data_ZnNiH4
_symmetry_space_group_name_H-M   P2/c
_cell_length_a   4.47690771
_cell_length_b   5.29552096
_cell_length_c   4.59631884
_cell_angle_alpha   90.00000000
_cell_angle_beta   116.15975668
_cell_angle_gamma   90.00000000
_symmetry_Int_Tables_number   13
_chemical_formula_structural   ZnNiH4
_chemical_formula_sum   'Zn2 Ni2 H8'
_cell_volume   97.80576702
_cell_formula_units_Z   2
loop_
 _symmetry_equiv_pos_site_id
 _symmetry_equiv_pos_as_xyz
  1  'x, y, z'
  2  '-x, -y, -z'
  3  '-x, y, -z+1/2'
  4  'x, -y, z+1/2'
loop_
 _atom_site_type_symbol
 _atom_site_label
 _atom_site_symmetry_multiplicity
 _atom_site_fract_x
 _atom_site_fract_y
 _atom_site_fract_z
 _atom_site_occupancy
  Zn  Zn0  2  0.50000000  0.20260828  0.75000000  1
  Ni  Ni1  2  0.00000000  0.11183691  0.25000000  1
  H  H2  4  0.17876191  0.11596628  0.00936243  1
  H  H3  4  0.25613836  0.34372455  0.38989512  1
