# generated using pymatgen
data_ZrPtS4
_symmetry_space_group_name_H-M   P2_1/c
_cell_length_a   6.91229217
_cell_length_b   5.69774542
_cell_length_c   6.76257103
_cell_angle_alpha   90.00000000
_cell_angle_beta   110.61351833
_cell_angle_gamma   90.00000000
_symmetry_Int_Tables_number   14
_chemical_formula_structural   ZrPtS4
_chemical_formula_sum   'Zr2 Pt2 S8'
_cell_volume   249.28830829
_cell_formula_units_Z   2
loop_
 _symmetry_equiv_pos_site_id
 _symmetry_equiv_pos_as_xyz
  1  'x, y, z'
  2  '-x, -y, -z'
  3  '-x, y+1/2, -z+1/2'
  4  'x, -y+1/2, z+1/2'
loop_
 _atom_site_type_symbol
 _atom_site_label
 _atom_site_symmetry_multiplicity
 _atom_site_fract_x
 _atom_site_fract_y
 _atom_site_fract_z
 _atom_site_occupancy
  Zr  Zr0  2  0.50000000  0.00000000  0.50000000  1
  Pt  Pt1  2  0.00000000  0.00000000  0.00000000  1
  S  S2  4  0.14796489  0.20984290  0.33208057  1
  S  S3  4  0.34097140  0.65598107  0.62693424  1
