# generated using pymatgen
data_ZrPtS4
_symmetry_space_group_name_H-M   P2/c
_cell_length_a   5.83408829
_cell_length_b   6.33751949
_cell_length_c   6.35758382
_cell_angle_alpha   90.00000000
_cell_angle_beta   100.80904882
_cell_angle_gamma   90.00000000
_symmetry_Int_Tables_number   13
_chemical_formula_structural   ZrPtS4
_chemical_formula_sum   'Zr2 Pt2 S8'
_cell_volume   230.89249521
_cell_formula_units_Z   2
loop_
 _symmetry_equiv_pos_site_id
 _symmetry_equiv_pos_as_xyz
  1  'x, y, z'
  2  '-x, -y, -z'
  3  '-x, y, -z+1/2'
  4  'x, -y, z+1/2'
loop_
 _atom_site_type_symbol
 _atom_site_label
 _atom_site_symmetry_multiplicity
 _atom_site_fract_x
 _atom_site_fract_y
 _atom_site_fract_z
 _atom_site_occupancy
  Zr  Zr0  2  0.50000000  0.28241098  0.75000000  1
  Pt  Pt1  2  0.00000000  0.15758901  0.25000000  1
  S  S2  4  0.24695309  0.42886843  0.42151182  1
  S  S3  4  0.25555663  0.06707579  0.00596165  1
