# generated using pymatgen
data_AgHF4
_symmetry_space_group_name_H-M   'P 1'
_cell_length_a   4.84721340
_cell_length_b   6.27678785
_cell_length_c   5.38814671
_cell_angle_alpha   99.04525395
_cell_angle_beta   94.33946696
_cell_angle_gamma   86.42654481
_symmetry_Int_Tables_number   1
_chemical_formula_structural   AgHF4
_chemical_formula_sum   'Ag2 H2 F8'
_cell_volume   161.21942054
_cell_formula_units_Z   2
loop_
 _symmetry_equiv_pos_site_id
 _symmetry_equiv_pos_as_xyz
  1  'x, y, z'
loop_
 _atom_site_type_symbol
 _atom_site_label
 _atom_site_symmetry_multiplicity
 _atom_site_fract_x
 _atom_site_fract_y
 _atom_site_fract_z
 _atom_site_occupancy
  Ag  Ag0  1  0.53552539  0.00633323  0.83281023  1
  Ag  Ag1  1  0.53515941  0.50687455  0.33245533  1
  H  H2  1  0.98917976  0.11477474  0.60446166  1
  H  H3  1  0.08174247  0.89774890  0.06017069  1
  F  F4  1  0.82347588  0.52412023  0.11503108  1
  F  F5  1  0.36487836  0.27900147  0.07856008  1
  F  F6  1  0.24689017  0.48969925  0.54994195  1
  F  F7  1  0.87181473  -0.01008169  0.10000572  1
  F  F8  1  0.77244543  0.19333488  0.63573402  1
  F  F9  1  0.19945163  0.02167482  0.56538821  1
  F  F10  1  0.70600107  0.73452308  0.58650774  1
  F  F11  1  0.29887810  0.81880788  0.02936752  1
