# generated using pymatgen
data_AgSeO4
_symmetry_space_group_name_H-M   'P 1'
_cell_length_a   5.31818241
_cell_length_b   4.68495284
_cell_length_c   8.13734764
_cell_angle_alpha   75.27080950
_cell_angle_beta   87.20735070
_cell_angle_gamma   95.28943305
_symmetry_Int_Tables_number   1
_chemical_formula_structural   AgSeO4
_chemical_formula_sum   'Ag2 Se2 O8'
_cell_volume   194.69911589
_cell_formula_units_Z   2
loop_
 _symmetry_equiv_pos_site_id
 _symmetry_equiv_pos_as_xyz
  1  'x, y, z'
loop_
 _atom_site_type_symbol
 _atom_site_label
 _atom_site_symmetry_multiplicity
 _atom_site_fract_x
 _atom_site_fract_y
 _atom_site_fract_z
 _atom_site_occupancy
  Ag  Ag0  1  0.65040736  0.50752461  0.77255550  1
  Ag  Ag1  1  0.16222563  0.61329266  0.48927408  1
  Se  Se2  1  0.09343095  0.02383251  0.86651538  1
  Se  Se3  1  0.71883241  0.09703590  0.39546702  1
  O  O4  1  0.51695606  0.81702045  0.54558607  1
  O  O5  1  0.27243719  0.86507086  0.01178810  1
  O  O6  1  -0.00848758  0.79727423  0.74388876  1
  O  O7  1  0.53906949  0.25424506  0.25028323  1
  O  O8  1  0.96694916  0.95563076  0.32149900  1
  O  O9  1  0.84578790  0.16576557  0.94065721  1
  O  O10  1  0.29553491  0.30391405  0.71671795  1
  O  O11  1  0.82019006  0.32543387  0.51729261  1
