# generated using pymatgen
data_Al2NiPSe2
_symmetry_space_group_name_H-M   'P 1'
_cell_length_a   3.42912378
_cell_length_b   3.43497114
_cell_length_c   11.28475224
_cell_angle_alpha   91.57603504
_cell_angle_beta   75.15356338
_cell_angle_gamma   89.98421510
_symmetry_Int_Tables_number   1
_chemical_formula_structural   Al2NiPSe2
_chemical_formula_sum   'Al2 Ni1 P1 Se2'
_cell_volume   128.43266245
_cell_formula_units_Z   1
loop_
 _symmetry_equiv_pos_site_id
 _symmetry_equiv_pos_as_xyz
  1  'x, y, z'
loop_
 _atom_site_type_symbol
 _atom_site_label
 _atom_site_symmetry_multiplicity
 _atom_site_fract_x
 _atom_site_fract_y
 _atom_site_fract_z
 _atom_site_occupancy
  Al  Al0  1  0.18735289  0.68268854  0.80109316  1
  Al  Al1  1  0.44157132  0.20514136  0.07440831  1
  Ni  Ni2  1  0.81185461  0.71874899  0.23183883  1
  P  P3  1  0.98871543  0.70001943  0.01947030  1
  Se  Se4  1  0.75117815  0.17547565  0.72494170  1
  Se  Se5  1  0.25644264  0.22662133  0.30044216  1
