# generated using pymatgen
data_Al3Ag4H
_symmetry_space_group_name_H-M   'P 1'
_cell_length_a   2.97951851
_cell_length_b   2.97781422
_cell_length_c   14.34959554
_cell_angle_alpha   89.98929207
_cell_angle_beta   101.92678272
_cell_angle_gamma   89.99740423
_symmetry_Int_Tables_number   1
_chemical_formula_structural   Al3Ag4H
_chemical_formula_sum   'Al3 Ag4 H1'
_cell_volume   124.56766554
_cell_formula_units_Z   1
loop_
 _symmetry_equiv_pos_site_id
 _symmetry_equiv_pos_as_xyz
  1  'x, y, z'
loop_
 _atom_site_type_symbol
 _atom_site_label
 _atom_site_symmetry_multiplicity
 _atom_site_fract_x
 _atom_site_fract_y
 _atom_site_fract_z
 _atom_site_occupancy
  Al  Al0  1  0.95229938  0.23489073  0.72088396  1
  Al  Al1  1  0.13888788  0.23817718  0.91571126  1
  Al  Al2  1  0.05067050  0.73400459  0.31814854  1
  Ag  Ag3  1  0.68067797  0.23472543  0.44690553  1
  Ag  Ag4  1  0.33001782  0.73452713  0.59787427  1
  Ag  Ag5  1  -0.23649022  0.73787319  0.03881821  1
  Ag  Ag6  1  0.41917384  0.23468924  0.18957105  1
  H  H7  1  0.04634239  0.73026712  0.81928995  1
