# generated using pymatgen
data_AlF3
_symmetry_space_group_name_H-M   'P 1'
_cell_length_a   4.60583732
_cell_length_b   4.60559184
_cell_length_c   5.50679180
_cell_angle_alpha   94.51161132
_cell_angle_beta   97.63944302
_cell_angle_gamma   75.53155117
_symmetry_Int_Tables_number   1
_chemical_formula_structural   AlF3
_chemical_formula_sum   'Al2 F6'
_cell_volume   111.97902024
_cell_formula_units_Z   2
loop_
 _symmetry_equiv_pos_site_id
 _symmetry_equiv_pos_as_xyz
  1  'x, y, z'
loop_
 _atom_site_type_symbol
 _atom_site_label
 _atom_site_symmetry_multiplicity
 _atom_site_fract_x
 _atom_site_fract_y
 _atom_site_fract_z
 _atom_site_occupancy
  Al  Al0  1  0.88679924  0.57298039  0.17950395  1
  Al  Al1  1  0.38666316  0.07296713  0.17943752  1
  F  F2  1  0.16757419  0.33519578  0.39746836  1
  F  F3  1  0.63659340  0.32304255  0.17942581  1
  F  F4  1  0.66834619  0.83545815  0.39751638  1
  F  F5  1  0.13752921  0.82224885  0.17992249  1
  F  F6  1  0.60591345  0.81054568  0.96168905  1
  F  F7  1  0.10503838  0.31031160  0.96163281  1
