# generated using pymatgen
data_Ba2Cd5As6
_symmetry_space_group_name_H-M   'P 1'
_cell_length_a   4.60799443
_cell_length_b   4.59627333
_cell_length_c   18.71827418
_cell_angle_alpha   71.82624476
_cell_angle_beta   82.71837345
_cell_angle_gamma   91.00702808
_symmetry_Int_Tables_number   1
_chemical_formula_structural   Ba2Cd5As6
_chemical_formula_sum   'Ba2 Cd5 As6'
_cell_volume   372.94457593
_cell_formula_units_Z   1
loop_
 _symmetry_equiv_pos_site_id
 _symmetry_equiv_pos_as_xyz
  1  'x, y, z'
loop_
 _atom_site_type_symbol
 _atom_site_label
 _atom_site_symmetry_multiplicity
 _atom_site_fract_x
 _atom_site_fract_y
 _atom_site_fract_z
 _atom_site_occupancy
  Ba  Ba0  1  0.40846607  0.24445186  0.82640925  1
  Ba  Ba1  1  0.04350748  0.57722889  0.56585894  1
  Cd  Cd2  1  0.82607476  0.05142438  0.97859158  1
  Cd  Cd3  1  0.04388667  -0.24548455  0.21878941  1
  Cd  Cd4  1  0.90040846  0.18927803  0.38041559  1
  Cd  Cd5  1  0.96122165  0.86715380  0.72934231  1
  Cd  Cd6  1  0.41044198  0.40069241  0.11442427  1
  As  As7  1  0.87932854  0.67479426  0.88185211  1
  As  As8  1  0.50494351  -0.03633701  0.64879836  1
  As  As9  1  0.34781880  -0.10715206  0.32820274  1
  As  As10  1  0.59788931  0.58172084  0.43377535  1
  As  As11  1  0.73575585  0.23541185  0.22714812  1
  As  As12  1  0.28207474  -0.02768026  0.05531670  1
