# generated using pymatgen
data_Ba2GeBi
_symmetry_space_group_name_H-M   'P 1'
_cell_length_a   5.95850100
_cell_length_b   5.97092793
_cell_length_c   5.98403610
_cell_angle_alpha   59.92823439
_cell_angle_beta   60.00890099
_cell_angle_gamma   60.00830612
_symmetry_Int_Tables_number   1
_chemical_formula_structural   Ba2GeBi
_chemical_formula_sum   'Ba2 Ge1 Bi1'
_cell_volume   150.47985182
_cell_formula_units_Z   1
loop_
 _symmetry_equiv_pos_site_id
 _symmetry_equiv_pos_as_xyz
  1  'x, y, z'
loop_
 _atom_site_type_symbol
 _atom_site_label
 _atom_site_symmetry_multiplicity
 _atom_site_fract_x
 _atom_site_fract_y
 _atom_site_fract_z
 _atom_site_occupancy
  Ba  Ba0  1  0.99789686  0.12945569  0.88149998  1
  Ba  Ba1  1  0.49887443  0.62943559  0.38024043  1
  Ge  Ge2  1  0.24843192  0.37942111  0.13196392  1
  Bi  Bi3  1  0.74774268  0.87883545  0.63003712  1
