# generated using pymatgen
data_Ba2InRhO4
_symmetry_space_group_name_H-M   'P 1'
_cell_length_a   4.01563024
_cell_length_b   6.19322535
_cell_length_c   6.87470224
_cell_angle_alpha   63.93613572
_cell_angle_beta   107.09480347
_cell_angle_gamma   90.11893728
_symmetry_Int_Tables_number   1
_chemical_formula_structural   Ba2InRhO4
_chemical_formula_sum   'Ba2 In1 Rh1 O4'
_cell_volume   145.18262552
_cell_formula_units_Z   1
loop_
 _symmetry_equiv_pos_site_id
 _symmetry_equiv_pos_as_xyz
  1  'x, y, z'
loop_
 _atom_site_type_symbol
 _atom_site_label
 _atom_site_symmetry_multiplicity
 _atom_site_fract_x
 _atom_site_fract_y
 _atom_site_fract_z
 _atom_site_occupancy
  Ba  Ba0  1  0.57070279  0.23137244  0.21595031  1
  Ba  Ba1  1  0.39283495  0.88597580  0.86449320  1
  In  In2  1  0.15517682  0.67151621  0.38539020  1
  Rh  Rh3  1  0.83795196  0.38624447  0.75084889  1
  O  O4  1  0.04116516  0.53197590  0.15607880  1
  O  O5  1  0.34349960  0.45161554  0.76132431  1
  O  O6  1  0.70516244  0.74665026  0.48403418  1
  O  O7  1  -0.01343140  0.03442338  0.04935178  1
