# generated using pymatgen
data_Ba2SrSe5
_symmetry_space_group_name_H-M   'P 1'
_cell_length_a   4.89240574
_cell_length_b   5.44370107
_cell_length_c   13.88139555
_cell_angle_alpha   112.73692890
_cell_angle_beta   76.13626531
_cell_angle_gamma   123.89821580
_symmetry_Int_Tables_number   1
_chemical_formula_structural   Ba2SrSe5
_chemical_formula_sum   'Ba2 Sr1 Se5'
_cell_volume   282.87597944
_cell_formula_units_Z   1
loop_
 _symmetry_equiv_pos_site_id
 _symmetry_equiv_pos_as_xyz
  1  'x, y, z'
loop_
 _atom_site_type_symbol
 _atom_site_label
 _atom_site_symmetry_multiplicity
 _atom_site_fract_x
 _atom_site_fract_y
 _atom_site_fract_z
 _atom_site_occupancy
  Ba  Ba0  1  0.18888020  0.25565512  0.11279260  1
  Ba  Ba1  1  0.55788316  0.04132103  0.72138811  1
  Sr  Sr2  1  0.20763097  0.09927743  0.45403166  1
  Se  Se3  1  0.89040545  0.56179635  0.57568292  1
  Se  Se4  1  0.96908603  0.52575808  0.99232768  1
  Se  Se5  1  0.46417426  0.64538849  0.36954609  1
  Se  Se6  1  0.88252651  0.71283719  0.22563188  1
  Se  Se7  1  0.28232479  0.50776660  0.82695665  1
