# generated using pymatgen
data_Ba2Tm2O5
_symmetry_space_group_name_H-M   'P 1'
_cell_length_a   4.35320946
_cell_length_b   4.36975533
_cell_length_c   8.45418352
_cell_angle_alpha   90.00463906
_cell_angle_beta   90.00149823
_cell_angle_gamma   90.04812245
_symmetry_Int_Tables_number   1
_chemical_formula_structural   Ba2Tm2O5
_chemical_formula_sum   'Ba2 Tm2 O5'
_cell_volume   160.81931255
_cell_formula_units_Z   1
loop_
 _symmetry_equiv_pos_site_id
 _symmetry_equiv_pos_as_xyz
  1  'x, y, z'
loop_
 _atom_site_type_symbol
 _atom_site_label
 _atom_site_symmetry_multiplicity
 _atom_site_fract_x
 _atom_site_fract_y
 _atom_site_fract_z
 _atom_site_occupancy
  Ba  Ba0  1  0.73740107  0.20577590  0.63707681  1
  Ba  Ba1  1  0.73577712  0.20550651  0.13986012  1
  Tm  Tm2  1  0.23744755  0.70601634  0.88964926  1
  Tm  Tm3  1  0.23703074  0.70549056  0.38252301  1
  O  O4  1  0.23804719  0.20620440  0.84846468  1
  O  O5  1  0.73774127  0.70627344  0.84492049  1
  O  O6  1  0.23831169  0.70605534  0.13618409  1
  O  O7  1  0.73717732  0.70528520  0.42340240  1
  O  O8  1  0.23741048  0.20542848  0.42139754  1
