# generated using pymatgen
data_Ba2Tm4TiClO10
_symmetry_space_group_name_H-M   'P 1'
_cell_length_a   3.96169775
_cell_length_b   6.93403514
_cell_length_c   11.82430020
_cell_angle_alpha   105.41876510
_cell_angle_beta   90.00946484
_cell_angle_gamma   83.00540081
_symmetry_Int_Tables_number   1
_chemical_formula_structural   Ba2Tm4TiClO10
_chemical_formula_sum   'Ba2 Tm4 Ti1 Cl1 O10'
_cell_volume   310.62265815
_cell_formula_units_Z   1
loop_
 _symmetry_equiv_pos_site_id
 _symmetry_equiv_pos_as_xyz
  1  'x, y, z'
loop_
 _atom_site_type_symbol
 _atom_site_label
 _atom_site_symmetry_multiplicity
 _atom_site_fract_x
 _atom_site_fract_y
 _atom_site_fract_z
 _atom_site_occupancy
  Ba  Ba0  1  0.84012153  0.95848279  0.76847693  1
  Ba  Ba1  1  0.47531438  0.91470606  0.22117710  1
  Tm  Tm2  1  0.31127571  0.49271596  0.94766822  1
  Tm  Tm3  1  0.28632162  0.64716226  0.43484646  1
  Tm  Tm4  1  0.85413005  0.41408936  0.19878471  1
  Tm  Tm5  1  0.35173810  0.41367352  0.66107043  1
  Ti  Ti6  1  0.93076183  0.22263803  0.43534551  1
  Cl  Cl7  1  0.40523388  0.14513405  0.02998682  1
  O  O8  1  0.32300810  0.55657161  0.23694622  1
  O  O9  1  0.29894100  0.67066248  0.82270004  1
  O  O10  1  0.92155736  0.14949785  0.25667511  1
  O  O11  1  0.80373862  0.54686256  0.03505057  1
  O  O12  1  0.33727965  0.72381053  0.62768872  1
  O  O13  1  0.33689577  0.25297297  0.79583974  1
  O  O14  1  0.82109884  0.52633900  0.39684141  1
  O  O15  1  0.87183742  0.30880246  0.60383106  1
  O  O16  1  0.03859515  0.94835043  0.41767041  1
  O  O17  1  0.37985944  0.29511510  0.44999493  1
