# generated using pymatgen
data_Ba3SbO
_symmetry_space_group_name_H-M   'P 1'
_cell_length_a   5.46436397
_cell_length_b   5.46663758
_cell_length_c   5.46538964
_cell_angle_alpha   89.90162665
_cell_angle_beta   89.85204471
_cell_angle_gamma   90.01570456
_symmetry_Int_Tables_number   1
_chemical_formula_structural   Ba3SbO
_chemical_formula_sum   'Ba3 Sb1 O1'
_cell_volume   163.25967426
_cell_formula_units_Z   1
loop_
 _symmetry_equiv_pos_site_id
 _symmetry_equiv_pos_as_xyz
  1  'x, y, z'
loop_
 _atom_site_type_symbol
 _atom_site_label
 _atom_site_symmetry_multiplicity
 _atom_site_fract_x
 _atom_site_fract_y
 _atom_site_fract_z
 _atom_site_occupancy
  Ba  Ba0  1  0.68917826  0.60285080  0.35052470  1
  Ba  Ba1  1  0.68834927  0.10445027  0.84990780  1
  Ba  Ba2  1  0.18852068  0.60501989  0.85050162  1
  Sb  Sb3  1  0.18840205  0.10282806  0.35061587  1
  O  O4  1  0.68858977  0.60448584  0.84919000  1
