# generated using pymatgen
data_Ba4Ca2Cd2InO9
_symmetry_space_group_name_H-M   'P 1'
_cell_length_a   6.35115908
_cell_length_b   6.47615714
_cell_length_c   9.15243743
_cell_angle_alpha   90.50132528
_cell_angle_beta   89.79440954
_cell_angle_gamma   120.51687872
_symmetry_Int_Tables_number   1
_chemical_formula_structural   Ba4Ca2Cd2InO9
_chemical_formula_sum   'Ba4 Ca2 Cd2 In1 O9'
_cell_volume   324.29130223
_cell_formula_units_Z   1
loop_
 _symmetry_equiv_pos_site_id
 _symmetry_equiv_pos_as_xyz
  1  'x, y, z'
loop_
 _atom_site_type_symbol
 _atom_site_label
 _atom_site_symmetry_multiplicity
 _atom_site_fract_x
 _atom_site_fract_y
 _atom_site_fract_z
 _atom_site_occupancy
  Ba  Ba0  1  0.47462323  0.42439593  0.99706707  1
  Ba  Ba1  1  0.80787241  0.78019106  0.35433280  1
  Ba  Ba2  1  0.81667773  0.08953101  0.98649958  1
  Ba  Ba3  1  0.79408462  0.44457980  0.65767370  1
  Ca  Ca4  1  0.14738817  0.43739190  0.33198298  1
  Ca  Ca5  1  0.47864582  0.09959412  0.33199533  1
  Cd  Cd6  1  0.13848525  0.14793319  0.64256911  1
  Cd  Cd7  1  0.14844951  0.76457251  0.03845589  1
  In  In8  1  0.42409819  0.78994627  0.67535019  1
  O  O9  1  0.18382268  0.45966248  0.79412336  1
  O  O10  1  0.46548773  0.76894483  0.16941762  1
  O  O11  1  0.81859852  0.16000473  0.46132569  1
  O  O12  1  0.16235959  0.10427482  0.17111592  1
  O  O13  1  0.20788233  0.76648787  0.48997200  1
  O  O14  1  0.82603386  0.42769357  0.16670431  1
  O  O15  1  0.42480415  0.37424436  0.47168649  1
  O  O16  1  0.43874218  0.07425078  0.81004789  1
  O  O17  1  0.77055203  0.83678974  0.73145327  1
