# generated using pymatgen
data_BaBr2
_symmetry_space_group_name_H-M   'P 1'
_cell_length_a   5.13877132
_cell_length_b   5.13857190
_cell_length_c   8.37492348
_cell_angle_alpha   89.95708501
_cell_angle_beta   89.88510189
_cell_angle_gamma   89.99844388
_symmetry_Int_Tables_number   1
_chemical_formula_structural   BaBr2
_chemical_formula_sum   'Ba2 Br4'
_cell_volume   221.14726990
_cell_formula_units_Z   2
loop_
 _symmetry_equiv_pos_site_id
 _symmetry_equiv_pos_as_xyz
  1  'x, y, z'
loop_
 _atom_site_type_symbol
 _atom_site_label
 _atom_site_symmetry_multiplicity
 _atom_site_fract_x
 _atom_site_fract_y
 _atom_site_fract_z
 _atom_site_occupancy
  Ba  Ba0  1  0.61271220  0.11573198  0.67795129  1
  Ba  Ba1  1  0.11116609  0.61474421  0.16471358  1
  Br  Br2  1  0.11093605  0.61446259  0.55430443  1
  Br  Br3  1  0.61145144  0.61471413  0.92141696  1
  Br  Br4  1  0.61092660  0.11388873  0.28845994  1
  Br  Br5  1  0.11185190  0.11467094  0.92131451  1
