# generated using pymatgen
data_BaCaH4
_symmetry_space_group_name_H-M   'P 1'
_cell_length_a   4.15626124
_cell_length_b   4.15604643
_cell_length_c   6.83669787
_cell_angle_alpha   72.52960494
_cell_angle_beta   72.57847843
_cell_angle_gamma   60.16068849
_symmetry_Int_Tables_number   1
_chemical_formula_structural   BaCaH4
_chemical_formula_sum   'Ba1 Ca1 H4'
_cell_volume   96.09319282
_cell_formula_units_Z   1
loop_
 _symmetry_equiv_pos_site_id
 _symmetry_equiv_pos_as_xyz
  1  'x, y, z'
loop_
 _atom_site_type_symbol
 _atom_site_label
 _atom_site_symmetry_multiplicity
 _atom_site_fract_x
 _atom_site_fract_y
 _atom_site_fract_z
 _atom_site_occupancy
  Ba  Ba0  1  0.59722377  0.92135653  0.96419309  1
  Ca  Ca1  1  0.09536013  0.41960123  0.46926716  1
  H  H2  1  0.38545754  0.70958746  0.60049379  1
  H  H3  1  0.21100963  0.53539477  0.12160793  1
  H  H4  1  0.80147759  0.12597169  0.34909137  1
  H  H5  1  0.97954966  0.30367333  0.81701934  1
