# generated using pymatgen
data_BaCdSb
_symmetry_space_group_name_H-M   'P 1'
_cell_length_a   4.95555196
_cell_length_b   4.95686050
_cell_length_c   9.27627956
_cell_angle_alpha   105.43502729
_cell_angle_beta   105.46845835
_cell_angle_gamma   90.06930694
_symmetry_Int_Tables_number   1
_chemical_formula_structural   BaCdSb
_chemical_formula_sum   'Ba2 Cd2 Sb2'
_cell_volume   211.04781083
_cell_formula_units_Z   2
loop_
 _symmetry_equiv_pos_site_id
 _symmetry_equiv_pos_as_xyz
  1  'x, y, z'
loop_
 _atom_site_type_symbol
 _atom_site_label
 _atom_site_symmetry_multiplicity
 _atom_site_fract_x
 _atom_site_fract_y
 _atom_site_fract_z
 _atom_site_occupancy
  Ba  Ba0  1  0.75994117  0.36099529  0.14235214  1
  Ba  Ba1  1  0.00918161  0.11170891  0.64138876  1
  Cd  Cd2  1  0.17624971  0.77731776  0.97473685  1
  Cd  Cd3  1  0.42599282  0.52900692  0.47490879  1
  Sb  Sb4  1  0.34195571  0.94514214  0.30652407  1
  Sb  Sb5  1  0.59218647  0.69287903  0.80657151  1
