# generated using pymatgen
data_BaCuF3
_symmetry_space_group_name_H-M   'P 1'
_cell_length_a   4.27084284
_cell_length_b   4.28178847
_cell_length_c   4.28677060
_cell_angle_alpha   89.98786688
_cell_angle_beta   90.03730777
_cell_angle_gamma   89.89187003
_symmetry_Int_Tables_number   1
_chemical_formula_structural   BaCuF3
_chemical_formula_sum   'Ba1 Cu1 F3'
_cell_volume   78.39135429
_cell_formula_units_Z   1
loop_
 _symmetry_equiv_pos_site_id
 _symmetry_equiv_pos_as_xyz
  1  'x, y, z'
loop_
 _atom_site_type_symbol
 _atom_site_label
 _atom_site_symmetry_multiplicity
 _atom_site_fract_x
 _atom_site_fract_y
 _atom_site_fract_z
 _atom_site_occupancy
  Ba  Ba0  1  0.67106974  0.95110186  0.72130282  1
  Cu  Cu1  1  0.17067987  0.45186761  0.22161836  1
  F  F2  1  0.67082572  0.45074961  0.22103883  1
  F  F3  1  0.17068141  0.45207415  0.72080976  1
  F  F4  1  0.16953275  0.95204138  0.22157715  1
