# generated using pymatgen
data_BaLa5Bi4
_symmetry_space_group_name_H-M   'P 1'
_cell_length_a   5.63657235
_cell_length_b   5.94001850
_cell_length_c   12.16708235
_cell_angle_alpha   89.98583478
_cell_angle_beta   103.36569783
_cell_angle_gamma   90.00375836
_symmetry_Int_Tables_number   1
_chemical_formula_structural   BaLa5Bi4
_chemical_formula_sum   'Ba1 La5 Bi4'
_cell_volume   396.33640913
_cell_formula_units_Z   1
loop_
 _symmetry_equiv_pos_site_id
 _symmetry_equiv_pos_as_xyz
  1  'x, y, z'
loop_
 _atom_site_type_symbol
 _atom_site_label
 _atom_site_symmetry_multiplicity
 _atom_site_fract_x
 _atom_site_fract_y
 _atom_site_fract_z
 _atom_site_occupancy
  Ba  Ba0  1  0.76418704  0.00735317  0.40708154  1
  La  La1  1  0.57905573  0.00803652  0.03393450  1
  La  La2  1  0.91330045  0.50776713  0.69849522  1
  La  La3  1  0.05996772  0.50796968  -0.00284895  1
  La  La4  1  0.20294835  0.50755374  0.28505853  1
  La  La5  1  0.40876012  0.00805088  0.69079631  1
  Bi  Bi6  1  0.98523328  0.00781943  0.84446615  1
  Bi  Bi7  1  0.63551655  0.50801691  0.14917715  1
  Bi  Bi8  1  0.15610714  0.00768542  0.18884986  1
  Bi  Bi9  1  0.34220358  0.50817415  0.55495653  1
