# generated using pymatgen
data_BaNaTiMoS8
_symmetry_space_group_name_H-M   'P 1'
_cell_length_a   3.73358064
_cell_length_b   5.65537679
_cell_length_c   12.39697320
_cell_angle_alpha   97.51740672
_cell_angle_beta   90.79917828
_cell_angle_gamma   90.28239783
_symmetry_Int_Tables_number   1
_chemical_formula_structural   BaNaTiMoS8
_chemical_formula_sum   'Ba1 Na1 Ti1 Mo1 S8'
_cell_volume   259.47862739
_cell_formula_units_Z   1
loop_
 _symmetry_equiv_pos_site_id
 _symmetry_equiv_pos_as_xyz
  1  'x, y, z'
loop_
 _atom_site_type_symbol
 _atom_site_label
 _atom_site_symmetry_multiplicity
 _atom_site_fract_x
 _atom_site_fract_y
 _atom_site_fract_z
 _atom_site_occupancy
  Ba  Ba0  1  0.64481656  0.31058552  0.41890146  1
  Na  Na1  1  0.65658414  0.00769965  0.04596110  1
  Ti  Ti2  1  0.11441621  0.13854894  0.75902440  1
  Mo  Mo3  1  0.62588824  0.64000378  0.75556595  1
  S  S4  1  0.12181747  0.45230940  0.64139890  1
  S  S5  1  0.16923804  0.23188762  0.19639247  1
  S  S6  1  0.79987719  0.73519492  0.27421721  1
  S  S7  1  0.60986474  0.95821385  0.64309555  1
  S  S8  1  0.13211221  0.82207187  0.87186926  1
  S  S9  1  0.10911736  0.56842483  0.14898898  1
  S  S10  1  0.12172384  0.81586721  0.41416411  1
  S  S11  1  0.62481870  0.32712785  0.87317628  1
