# generated using pymatgen
data_BaSrCdHg
_symmetry_space_group_name_H-M   'P 1'
_cell_length_a   5.87328953
_cell_length_b   5.87832092
_cell_length_c   5.87887079
_cell_angle_alpha   59.85037649
_cell_angle_beta   59.94300936
_cell_angle_gamma   59.96045319
_symmetry_Int_Tables_number   1
_chemical_formula_structural   BaSrCdHg
_chemical_formula_sum   'Ba1 Sr1 Cd1 Hg1'
_cell_volume   143.25295116
_cell_formula_units_Z   1
loop_
 _symmetry_equiv_pos_site_id
 _symmetry_equiv_pos_as_xyz
  1  'x, y, z'
loop_
 _atom_site_type_symbol
 _atom_site_label
 _atom_site_symmetry_multiplicity
 _atom_site_fract_x
 _atom_site_fract_y
 _atom_site_fract_z
 _atom_site_occupancy
  Ba  Ba0  1  0.47275938  0.20402807  0.09164735  1
  Sr  Sr1  1  0.97256830  0.70363794  0.59148150  1
  Cd  Cd2  1  0.72278920  0.45391593  0.34105029  1
  Hg  Hg3  1  0.22257526  0.95427320  0.84245613  1
