# generated using pymatgen
data_BaTbBiTeSe
_symmetry_space_group_name_H-M   'P 1'
_cell_length_a   4.33311739
_cell_length_b   4.33310086
_cell_length_c   9.46699312
_cell_angle_alpha   90.04067602
_cell_angle_beta   90.06394601
_cell_angle_gamma   90.00005139
_symmetry_Int_Tables_number   1
_chemical_formula_structural   BaTbBiTeSe
_chemical_formula_sum   'Ba1 Tb1 Bi1 Te1 Se1'
_cell_volume   177.75054220
_cell_formula_units_Z   1
loop_
 _symmetry_equiv_pos_site_id
 _symmetry_equiv_pos_as_xyz
  1  'x, y, z'
loop_
 _atom_site_type_symbol
 _atom_site_label
 _atom_site_symmetry_multiplicity
 _atom_site_fract_x
 _atom_site_fract_y
 _atom_site_fract_z
 _atom_site_occupancy
  Ba  Ba0  1  0.03093092  0.43471717  0.91431786  1
  Tb  Tb1  1  0.52971585  0.93417650  0.47911129  1
  Bi  Bi2  1  0.02915587  0.43387121  0.38669137  1
  Te  Te3  1  0.53222304  0.93520114  0.15235659  1
  Se  Se4  1  0.53097838  0.93462010  0.76683880  1
