# generated using pymatgen
data_BeZnSn3HgPHPt3
_symmetry_space_group_name_H-M   'P 1'
_cell_length_a   3.67626241
_cell_length_b   4.18248819
_cell_length_c   15.03545429
_cell_angle_alpha   77.39708273
_cell_angle_beta   72.31545569
_cell_angle_gamma   84.84337558
_symmetry_Int_Tables_number   1
_chemical_formula_structural   BeZnSn3HgPHPt3
_chemical_formula_sum   'Be1 Zn1 Sn3 Hg1 P1 H1 Pt3'
_cell_volume   214.88281615
_cell_formula_units_Z   1
loop_
 _symmetry_equiv_pos_site_id
 _symmetry_equiv_pos_as_xyz
  1  'x, y, z'
loop_
 _atom_site_type_symbol
 _atom_site_label
 _atom_site_symmetry_multiplicity
 _atom_site_fract_x
 _atom_site_fract_y
 _atom_site_fract_z
 _atom_site_occupancy
  Be  Be0  1  0.70798350  0.81687237  0.37228565  1
  Zn  Zn1  1  0.33778455  0.29550388  0.44639418  1
  Sn  Sn2  1  0.14024883  0.83582656  0.79918097  1
  Sn  Sn3  1  0.53185109  0.70202034  0.56574273  1
  Sn  Sn4  1  0.68993356  0.47872384  0.15542226  1
  Hg  Hg5  1  0.42091900  0.04277396  0.01812113  1
  P  P6  1  0.31612021  0.83024676  0.29301422  1
  H  H7  1  0.74939983  0.44316788  0.70924599  1
  Pt  Pt8  1  0.57920837  0.29515355  0.82772325  1
  Pt  Pt9  1  0.01157153  0.19611180  0.62680539  1
  Pt  Pt10  1  0.00638806  0.33370654  0.31096308  1
