# generated using pymatgen
data_Bi2SO2
_symmetry_space_group_name_H-M   'P 1'
_cell_length_a   3.99308902
_cell_length_b   3.99246179
_cell_length_c   6.83182960
_cell_angle_alpha   89.99667386
_cell_angle_beta   90.01249870
_cell_angle_gamma   120.02364797
_symmetry_Int_Tables_number   1
_chemical_formula_structural   Bi2SO2
_chemical_formula_sum   'Bi2 S1 O2'
_cell_volume   94.30047250
_cell_formula_units_Z   1
loop_
 _symmetry_equiv_pos_site_id
 _symmetry_equiv_pos_as_xyz
  1  'x, y, z'
loop_
 _atom_site_type_symbol
 _atom_site_label
 _atom_site_symmetry_multiplicity
 _atom_site_fract_x
 _atom_site_fract_y
 _atom_site_fract_z
 _atom_site_occupancy
  Bi  Bi0  1  0.71311454  0.02758408  0.62137768  1
  Bi  Bi1  1  0.04695245  0.69410842  0.06678456  1
  S  S2  1  0.37997700  0.36106182  0.34480187  1
  O  O3  1  0.04662597  0.69452472  0.72212079  1
  O  O4  1  0.71342472  0.02736508  0.96702163  1
