# generated using pymatgen
data_BiI3
_symmetry_space_group_name_H-M   'P 1'
_cell_length_a   4.16827543
_cell_length_b   9.37408790
_cell_length_c   10.42017647
_cell_angle_alpha   107.52324352
_cell_angle_beta   90.00850104
_cell_angle_gamma   90.03587354
_symmetry_Int_Tables_number   1
_chemical_formula_structural   BiI3
_chemical_formula_sum   'Bi2 I6'
_cell_volume   388.26147893
_cell_formula_units_Z   2
loop_
 _symmetry_equiv_pos_site_id
 _symmetry_equiv_pos_as_xyz
  1  'x, y, z'
loop_
 _atom_site_type_symbol
 _atom_site_label
 _atom_site_symmetry_multiplicity
 _atom_site_fract_x
 _atom_site_fract_y
 _atom_site_fract_z
 _atom_site_occupancy
  Bi  Bi0  1  0.06982107  0.06637889  0.32975207  1
  Bi  Bi1  1  0.57217612  0.53066030  0.71265423  1
  I  I2  1  0.07107307  0.45667211  0.46770109  1
  I  I3  1  0.57088648  0.13893101  0.57446861  1
  I  I4  1  0.07160809  0.79773187  0.79470761  1
  I  I5  1  0.57045843  0.79911269  0.24730864  1
  I  I6  1  0.57058797  0.17682873  0.15480918  1
  I  I7  1  0.07134957  0.41977964  0.88685813  1
