# generated using pymatgen
data_BiPdO3
_symmetry_space_group_name_H-M   'P 1'
_cell_length_a   4.14724990
_cell_length_b   4.14022297
_cell_length_c   6.86642452
_cell_angle_alpha   69.90959975
_cell_angle_beta   99.26070840
_cell_angle_gamma   134.13451282
_symmetry_Int_Tables_number   1
_chemical_formula_structural   BiPdO3
_chemical_formula_sum   'Bi1 Pd1 O3'
_cell_volume   78.93137042
_cell_formula_units_Z   1
loop_
 _symmetry_equiv_pos_site_id
 _symmetry_equiv_pos_as_xyz
  1  'x, y, z'
loop_
 _atom_site_type_symbol
 _atom_site_label
 _atom_site_symmetry_multiplicity
 _atom_site_fract_x
 _atom_site_fract_y
 _atom_site_fract_z
 _atom_site_occupancy
  Bi  Bi0  1  0.14198158  0.47543601  0.81005258  1
  Pd  Pd1  1  0.63324663  0.48736510  0.30801392  1
  O  O2  1  0.20765550  0.77119531  0.44870319  1
  O  O3  1  0.45216917  0.15605192  0.82100850  1
  O  O4  1  0.05789566  0.20319627  0.16841104  1
