# generated using pymatgen
data_BiPdF6
_symmetry_space_group_name_H-M   'P 1'
_cell_length_a   4.96509142
_cell_length_b   5.05239439
_cell_length_c   5.00344455
_cell_angle_alpha   88.74022018
_cell_angle_beta   101.41685589
_cell_angle_gamma   76.59237487
_symmetry_Int_Tables_number   1
_chemical_formula_structural   BiPdF6
_chemical_formula_sum   'Bi1 Pd1 F6'
_cell_volume   119.37395475
_cell_formula_units_Z   1
loop_
 _symmetry_equiv_pos_site_id
 _symmetry_equiv_pos_as_xyz
  1  'x, y, z'
loop_
 _atom_site_type_symbol
 _atom_site_label
 _atom_site_symmetry_multiplicity
 _atom_site_fract_x
 _atom_site_fract_y
 _atom_site_fract_z
 _atom_site_occupancy
  Bi  Bi0  1  0.12448487  0.85060242  0.42356344  1
  Pd  Pd1  1  0.72182765  0.43928828  0.85155932  1
  F  F2  1  0.42415298  0.73768813  0.92677301  1
  F  F3  1  0.77568483  0.73371915  0.54484238  1
  F  F4  1  0.74925705  0.12550289  0.17016312  1
  F  F5  1  0.01881091  0.14923318  0.74704435  1
  F  F6  1  0.41137206  0.37799936  0.56682449  1
  F  F7  1  0.03047436  0.53271722  0.12454601  1
