# generated using pymatgen
data_BiPdPb
_symmetry_space_group_name_H-M   'P 1'
_cell_length_a   4.70497896
_cell_length_b   4.70080870
_cell_length_c   8.59924573
_cell_angle_alpha   89.92033902
_cell_angle_beta   89.96178550
_cell_angle_gamma   119.96763870
_symmetry_Int_Tables_number   1
_chemical_formula_structural   BiPdPb
_chemical_formula_sum   'Bi2 Pd2 Pb2'
_cell_volume   164.76381046
_cell_formula_units_Z   2
loop_
 _symmetry_equiv_pos_site_id
 _symmetry_equiv_pos_as_xyz
  1  'x, y, z'
loop_
 _atom_site_type_symbol
 _atom_site_label
 _atom_site_symmetry_multiplicity
 _atom_site_fract_x
 _atom_site_fract_y
 _atom_site_fract_z
 _atom_site_occupancy
  Bi  Bi0  1  0.92446411  0.68774856  0.24811210  1
  Bi  Bi1  1  0.59059343  0.02190758  0.74711472  1
  Pd  Pd2  1  0.92422443  0.68874719  0.74773668  1
  Pd  Pd3  1  0.59058364  0.02112248  0.24346373  1
  Pb  Pb4  1  0.25755171  0.35631243  0.49768569  1
  Pb  Pb5  1  0.25761649  0.35441750  0.99773430  1
