# generated using pymatgen
data_C
_symmetry_space_group_name_H-M   'P 1'
_cell_length_a   3.71194261
_cell_length_b   2.42999868
_cell_length_c   9.50675779
_cell_angle_alpha   75.85706843
_cell_angle_beta   83.00036645
_cell_angle_gamma   109.14072147
_symmetry_Int_Tables_number   1
_chemical_formula_structural   C
_chemical_formula_sum   C3
_cell_volume   76.62178971
_cell_formula_units_Z   3
loop_
 _symmetry_equiv_pos_site_id
 _symmetry_equiv_pos_as_xyz
  1  'x, y, z'
loop_
 _atom_site_type_symbol
 _atom_site_label
 _atom_site_symmetry_multiplicity
 _atom_site_fract_x
 _atom_site_fract_y
 _atom_site_fract_z
 _atom_site_occupancy
  C  C0  1  0.08678566  0.17026731  0.34759735  1
  C  C1  1  0.69701703  0.97318614  0.34773972  1
  C  C2  1  0.47653874  0.36540248  0.34766392  1
