# generated using pymatgen
data_Ca2HgN2
_symmetry_space_group_name_H-M   'P 1'
_cell_length_a   3.61608375
_cell_length_b   3.61833535
_cell_length_c   7.20142272
_cell_angle_alpha   104.54884515
_cell_angle_beta   104.37483902
_cell_angle_gamma   90.01242051
_symmetry_Int_Tables_number   1
_chemical_formula_structural   Ca2HgN2
_chemical_formula_sum   'Ca2 Hg1 N2'
_cell_volume   88.15106831
_cell_formula_units_Z   1
loop_
 _symmetry_equiv_pos_site_id
 _symmetry_equiv_pos_as_xyz
  1  'x, y, z'
loop_
 _atom_site_type_symbol
 _atom_site_label
 _atom_site_symmetry_multiplicity
 _atom_site_fract_x
 _atom_site_fract_y
 _atom_site_fract_z
 _atom_site_occupancy
  Ca  Ca0  1  0.41140401  0.43652590  0.50161212  1
  Ca  Ca1  1  0.06961452  0.09769999  0.82406323  1
  Hg  Hg2  1  0.74073749  0.76748008  0.16289803  1
  N  N3  1  0.58344882  0.61255107  0.85294759  1
  N  N4  1  0.89808361  0.92173000  0.47278743  1
