# generated using pymatgen
data_Ca2La3Tm2O12
_symmetry_space_group_name_H-M   'P 1'
_cell_length_a   6.07764237
_cell_length_b   6.12972738
_cell_length_c   8.07723247
_cell_angle_alpha   96.45503050
_cell_angle_beta   80.93610007
_cell_angle_gamma   79.74182174
_symmetry_Int_Tables_number   1
_chemical_formula_structural   Ca2La3Tm2O12
_chemical_formula_sum   'Ca2 La3 Tm2 O12'
_cell_volume   289.33261807
_cell_formula_units_Z   1
loop_
 _symmetry_equiv_pos_site_id
 _symmetry_equiv_pos_as_xyz
  1  'x, y, z'
loop_
 _atom_site_type_symbol
 _atom_site_label
 _atom_site_symmetry_multiplicity
 _atom_site_fract_x
 _atom_site_fract_y
 _atom_site_fract_z
 _atom_site_occupancy
  Ca  Ca0  1  0.37349987  0.00281209  0.74711082  1
  Ca  Ca1  1  0.73623706  0.92602955  0.06728675  1
  La  La2  1  0.41473579  0.56426103  0.02015194  1
  La  La3  1  -0.01088491  0.89155545  0.45765895  1
  La  La4  1  0.46711841  0.41597143  0.45988777  1
  Tm  Tm5  1  0.95110502  0.41571375  0.72585429  1
  Tm  Tm6  1  -0.01712387  0.31896847  0.14468262  1
  O  O7  1  0.69480272  0.60645687  0.20985861  1
  O  O8  1  0.28420307  0.98594149  0.13983699  1
  O  O9  1  0.77528635  0.13064959  0.29684029  1
  O  O10  1  0.19960625  0.16652322  0.54786671  1
  O  O11  1  0.66960309  0.73555564  0.81103778  1
  O  O12  1  0.69450547  0.20569174  0.65088588  1
  O  O13  1  0.18039512  0.68020674  0.64066243  1
  O  O14  1  0.69772586  0.69263416  0.62110941  1
  O  O15  1  0.18966012  0.52216195  0.27342473  1
  O  O16  1  0.18117030  0.35780566  0.90440580  1
  O  O17  1  0.74396510  0.26515347  0.94165505  1
  O  O18  1  0.14692167  0.92504211  0.00676676  1
