# generated using pymatgen
data_Ca2Ti3Cu2O9
_symmetry_space_group_name_H-M   'P 1'
_cell_length_a   3.73016632
_cell_length_b   5.55441662
_cell_length_c   11.90325314
_cell_angle_alpha   93.68819088
_cell_angle_beta   90.26556654
_cell_angle_gamma   70.37826216
_symmetry_Int_Tables_number   1
_chemical_formula_structural   Ca2Ti3Cu2O9
_chemical_formula_sum   'Ca2 Ti3 Cu2 O9'
_cell_volume   231.78207225
_cell_formula_units_Z   1
loop_
 _symmetry_equiv_pos_site_id
 _symmetry_equiv_pos_as_xyz
  1  'x, y, z'
loop_
 _atom_site_type_symbol
 _atom_site_label
 _atom_site_symmetry_multiplicity
 _atom_site_fract_x
 _atom_site_fract_y
 _atom_site_fract_z
 _atom_site_occupancy
  Ca  Ca0  1  0.31126164  0.50277484  0.96526258  1
  Ca  Ca1  1  0.33507736  0.46762744  0.42730567  1
  Ti  Ti2  1  0.96573385  0.20000332  0.19948633  1
  Ti  Ti3  1  0.69578685  0.73970616  0.19201554  1
  Ti  Ti4  1  0.32836361  0.47193608  0.69395672  1
  Cu  Cu5  1  0.61878903  0.89376842  0.82753955  1
  Cu  Cu6  1  0.62549372  0.87641961  0.59084025  1
  O  O7  1  0.43563936  0.26121572  0.80976607  1
  O  O8  1  0.15786566  0.81440085  0.15233296  1
  O  O9  1  0.50470752  0.12327458  0.24161316  1
  O  O10  1  0.77266296  0.58338971  0.68922919  1
  O  O11  1  0.17636190  0.77354250  0.56055965  1
  O  O12  1  0.80937755  0.51586973  0.30967718  1
  O  O13  1  0.44452332  0.23564050  0.57003249  1
  O  O14  1  0.85374001  0.42078473  0.08197508  1
  O  O15  1  0.17104300  0.78996021  0.84258737  1
