# generated using pymatgen
data_Ca2TlCuO2
_symmetry_space_group_name_H-M   'P 1'
_cell_length_a   3.67443466
_cell_length_b   3.70719633
_cell_length_c   10.92068613
_cell_angle_alpha   89.55462440
_cell_angle_beta   90.60903608
_cell_angle_gamma   119.73037284
_symmetry_Int_Tables_number   1
_chemical_formula_structural   Ca2TlCuO2
_chemical_formula_sum   'Ca2 Tl1 Cu1 O2'
_cell_volume   129.17066239
_cell_formula_units_Z   1
loop_
 _symmetry_equiv_pos_site_id
 _symmetry_equiv_pos_as_xyz
  1  'x, y, z'
loop_
 _atom_site_type_symbol
 _atom_site_label
 _atom_site_symmetry_multiplicity
 _atom_site_fract_x
 _atom_site_fract_y
 _atom_site_fract_z
 _atom_site_occupancy
  Ca  Ca0  1  0.11252087  0.20457683  0.59678827  1
  Ca  Ca1  1  0.76931276  0.54278486  0.14005709  1
  Tl  Tl2  1  0.44151966  0.87368990  0.86841676  1
  Cu  Cu3  1  0.44018274  0.87277164  0.36842317  1
  O  O4  1  -0.55714203  -0.13134955  0.53626792  1
  O  O5  1  0.44007903  0.87914989  0.20057181  1
