# generated using pymatgen
data_CaGa3
_symmetry_space_group_name_H-M   'P 1'
_cell_length_a   4.35099881
_cell_length_b   4.35198565
_cell_length_c   5.85901003
_cell_angle_alpha   111.77425777
_cell_angle_beta   111.56797197
_cell_angle_gamma   90.05316976
_symmetry_Int_Tables_number   1
_chemical_formula_structural   CaGa3
_chemical_formula_sum   'Ca1 Ga3'
_cell_volume   94.59547893
_cell_formula_units_Z   1
loop_
 _symmetry_equiv_pos_site_id
 _symmetry_equiv_pos_as_xyz
  1  'x, y, z'
loop_
 _atom_site_type_symbol
 _atom_site_label
 _atom_site_symmetry_multiplicity
 _atom_site_fract_x
 _atom_site_fract_y
 _atom_site_fract_z
 _atom_site_occupancy
  Ca  Ca0  1  0.07688971  0.93559273  0.99337208  1
  Ga  Ga1  1  0.44910190  0.30791269  0.73826218  1
  Ga  Ga2  1  0.32480141  0.68473579  0.49223088  1
  Ga  Ga3  1  0.70257512  0.56348835  0.24566388  1
