# generated using pymatgen
data_CaNb2CoSbPS
_symmetry_space_group_name_H-M   'P 1'
_cell_length_a   3.72822746
_cell_length_b   3.72761624
_cell_length_c   10.73817088
_cell_angle_alpha   89.95905617
_cell_angle_beta   90.04221615
_cell_angle_gamma   120.00745708
_symmetry_Int_Tables_number   1
_chemical_formula_structural   CaNb2CoSbPS
_chemical_formula_sum   'Ca1 Nb2 Co1 Sb1 P1 S1'
_cell_volume   129.22952494
_cell_formula_units_Z   1
loop_
 _symmetry_equiv_pos_site_id
 _symmetry_equiv_pos_as_xyz
  1  'x, y, z'
loop_
 _atom_site_type_symbol
 _atom_site_label
 _atom_site_symmetry_multiplicity
 _atom_site_fract_x
 _atom_site_fract_y
 _atom_site_fract_z
 _atom_site_occupancy
  Ca  Ca0  1  0.51356428  0.26366341  0.86270431  1
  Nb  Nb1  1  0.18130646  0.59665943  0.46899674  1
  Nb  Nb2  1  0.18061510  0.59742025  0.16142722  1
  Co  Co3  1  0.84771454  0.93021382  0.31499993  1
  Sb  Sb4  1  0.84807898  0.92965768  0.64319088  1
  P  P5  1  0.51430962  0.26392565  0.32317034  1
  S  S6  1  0.84700054  0.93077723  0.02733165  1
