# generated using pymatgen
data_CdBiI5O
_symmetry_space_group_name_H-M   'P 1'
_cell_length_a   4.22511836
_cell_length_b   4.25488843
_cell_length_c   20.28203315
_cell_angle_alpha   90.37884391
_cell_angle_beta   107.82968989
_cell_angle_gamma   120.30588370
_symmetry_Int_Tables_number   1
_chemical_formula_structural   CdBiI5O
_chemical_formula_sum   'Cd1 Bi1 I5 O1'
_cell_volume   293.85706747
_cell_formula_units_Z   1
loop_
 _symmetry_equiv_pos_site_id
 _symmetry_equiv_pos_as_xyz
  1  'x, y, z'
loop_
 _atom_site_type_symbol
 _atom_site_label
 _atom_site_symmetry_multiplicity
 _atom_site_fract_x
 _atom_site_fract_y
 _atom_site_fract_z
 _atom_site_occupancy
  Cd  Cd0  1  0.38285608  0.72951689  0.85045601  1
  Bi  Bi1  1  -0.15422893  0.45632414  0.41773174  1
  I  I2  1  0.24043679  0.16157877  0.94357371  1
  I  I3  1  0.52789641  0.29857370  0.75696103  1
  I  I4  1  0.82988972  0.95314713  0.53209377  1
  I  I5  1  0.69943308  0.88501196  0.27768771  1
  I  I6  1  0.09083882  0.58265750  0.14736163  1
  O  O7  1  0.19772934  0.13052891  0.39631298  1
