# generated using pymatgen
data_CdCuAuO4
_symmetry_space_group_name_H-M   'P 1'
_cell_length_a   4.14950023
_cell_length_b   5.55974919
_cell_length_c   5.76419475
_cell_angle_alpha   78.33494147
_cell_angle_beta   126.99490847
_cell_angle_gamma   97.49171598
_symmetry_Int_Tables_number   1
_chemical_formula_structural   CdCuAuO4
_chemical_formula_sum   'Cd1 Cu1 Au1 O4'
_cell_volume   104.01037321
_cell_formula_units_Z   1
loop_
 _symmetry_equiv_pos_site_id
 _symmetry_equiv_pos_as_xyz
  1  'x, y, z'
loop_
 _atom_site_type_symbol
 _atom_site_label
 _atom_site_symmetry_multiplicity
 _atom_site_fract_x
 _atom_site_fract_y
 _atom_site_fract_z
 _atom_site_occupancy
  Cd  Cd0  1  0.09622285  0.12346432  0.03631156  1
  Cu  Cu1  1  0.59635665  0.62366366  0.53596404  1
  Au  Au2  1  0.59626808  0.62363001  0.03589905  1
  O  O3  1  0.62616499  0.85899606  0.73486501  1
  O  O4  1  0.58926554  0.38521475  0.81222471  1
  O  O5  1  0.56632917  0.38818364  0.33695430  1
  O  O6  1  0.60337009  0.86197415  0.25969410  1
