# generated using pymatgen
data_CdSbF4
_symmetry_space_group_name_H-M   'P 1'
_cell_length_a   4.20032360
_cell_length_b   4.20800166
_cell_length_c   7.17656114
_cell_angle_alpha   125.76223322
_cell_angle_beta   89.75647701
_cell_angle_gamma   90.28078616
_symmetry_Int_Tables_number   1
_chemical_formula_structural   CdSbF4
_chemical_formula_sum   'Cd1 Sb1 F4'
_cell_volume   102.92729065
_cell_formula_units_Z   1
loop_
 _symmetry_equiv_pos_site_id
 _symmetry_equiv_pos_as_xyz
  1  'x, y, z'
loop_
 _atom_site_type_symbol
 _atom_site_label
 _atom_site_symmetry_multiplicity
 _atom_site_fract_x
 _atom_site_fract_y
 _atom_site_fract_z
 _atom_site_occupancy
  Cd  Cd0  1  0.72101257  0.71498670  0.39485413  1
  Sb  Sb1  1  0.17202990  0.66915321  0.89462444  1
  F  F2  1  0.21677006  0.50708154  0.11914429  1
  F  F3  1  0.78546031  0.49117537  0.67078589  1
  F  F4  1  0.78427095  0.93883027  0.11873559  1
  F  F5  1  0.21702087  0.05913792  0.67075020  1
