# generated using pymatgen
data_CdSb5Rh4
_symmetry_space_group_name_H-M   'P 1'
_cell_length_a   4.65125114
_cell_length_b   4.65027951
_cell_length_c   13.33196345
_cell_angle_alpha   78.84304308
_cell_angle_beta   86.20980356
_cell_angle_gamma   50.59326409
_symmetry_Int_Tables_number   1
_chemical_formula_structural   CdSb5Rh4
_chemical_formula_sum   'Cd1 Sb5 Rh4'
_cell_volume   217.98406855
_cell_formula_units_Z   1
loop_
 _symmetry_equiv_pos_site_id
 _symmetry_equiv_pos_as_xyz
  1  'x, y, z'
loop_
 _atom_site_type_symbol
 _atom_site_label
 _atom_site_symmetry_multiplicity
 _atom_site_fract_x
 _atom_site_fract_y
 _atom_site_fract_z
 _atom_site_occupancy
  Cd  Cd0  1  0.57865034  0.65568050  0.50101202  1
  Sb  Sb1  1  0.84646838  0.03945244  0.38434983  1
  Sb  Sb2  1  0.17847698  0.52866151  0.22782972  1
  Sb  Sb3  1  0.41391525  0.93963657  0.05273601  1
  Sb  Sb4  1  0.30082455  0.23507421  0.64437152  1
  Sb  Sb5  1  0.06047341  0.79146305  0.84780143  1
  Rh  Rh6  1  0.86515447  0.26321104  0.18045764  1
  Rh  Rh7  1  0.36772466  0.09946135  0.84683149  1
  Rh  Rh8  1  0.68465465  0.28705090  0.97606512  1
  Rh  Rh9  1  0.62526595  0.48536436  0.71878948  1
