# generated using pymatgen
data_Ce2InHg
_symmetry_space_group_name_H-M   'P 1'
_cell_length_a   5.47774092
_cell_length_b   5.47663349
_cell_length_c   5.48349669
_cell_angle_alpha   59.85056310
_cell_angle_beta   59.66359570
_cell_angle_gamma   59.70769721
_symmetry_Int_Tables_number   1
_chemical_formula_structural   Ce2InHg
_chemical_formula_sum   'Ce2 In1 Hg1'
_cell_volume   115.63505094
_cell_formula_units_Z   1
loop_
 _symmetry_equiv_pos_site_id
 _symmetry_equiv_pos_as_xyz
  1  'x, y, z'
loop_
 _atom_site_type_symbol
 _atom_site_label
 _atom_site_symmetry_multiplicity
 _atom_site_fract_x
 _atom_site_fract_y
 _atom_site_fract_z
 _atom_site_occupancy
  Ce  Ce0  1  0.71896079  0.29602068  0.65391848  1
  Ce  Ce1  1  0.21930799  0.79624046  0.15428967  1
  In  In2  1  0.46922181  0.04605033  0.40425483  1
  Hg  Hg3  1  0.96953149  0.54675514  0.90385862  1
