# generated using pymatgen
data_Ce2P6Os
_symmetry_space_group_name_H-M   'P 1'
_cell_length_a   3.91475408
_cell_length_b   3.99581515
_cell_length_c   10.67397361
_cell_angle_alpha   93.55655725
_cell_angle_beta   92.60176243
_cell_angle_gamma   92.09831927
_symmetry_Int_Tables_number   1
_chemical_formula_structural   Ce2P6Os
_chemical_formula_sum   'Ce2 P6 Os1'
_cell_volume   166.34546690
_cell_formula_units_Z   1
loop_
 _symmetry_equiv_pos_site_id
 _symmetry_equiv_pos_as_xyz
  1  'x, y, z'
loop_
 _atom_site_type_symbol
 _atom_site_label
 _atom_site_symmetry_multiplicity
 _atom_site_fract_x
 _atom_site_fract_y
 _atom_site_fract_z
 _atom_site_occupancy
  Ce  Ce0  1  0.47217907  0.71106075  0.03839963  1
  Ce  Ce1  1  0.52145870  0.38992530  0.35162218  1
  P  P2  1  0.98836676  0.20452681  0.11269023  1
  P  P3  1  0.48686381  0.90857246  0.55909457  1
  P  P4  1  0.00508101  0.89640991  0.27707080  1
  P  P5  1  0.50405991  0.19228375  0.83180127  1
  P  P6  1  0.93442232  0.58342841  0.82955116  1
  P  P7  1  0.06008143  0.51310537  0.56003741  1
  Os  Os8  1  0.99590769  0.04886839  0.69516924  1
