# generated using pymatgen
data_CeAlRe3
_symmetry_space_group_name_H-M   'P 1'
_cell_length_a   4.59607814
_cell_length_b   4.59621695
_cell_length_c   4.59648186
_cell_angle_alpha   90.13976672
_cell_angle_beta   90.00444721
_cell_angle_gamma   90.00705119
_symmetry_Int_Tables_number   1
_chemical_formula_structural   CeAlRe3
_chemical_formula_sum   'Ce1 Al1 Re3'
_cell_volume   97.09842330
_cell_formula_units_Z   1
loop_
 _symmetry_equiv_pos_site_id
 _symmetry_equiv_pos_as_xyz
  1  'x, y, z'
loop_
 _atom_site_type_symbol
 _atom_site_label
 _atom_site_symmetry_multiplicity
 _atom_site_fract_x
 _atom_site_fract_y
 _atom_site_fract_z
 _atom_site_occupancy
  Ce  Ce0  1  0.00779060  0.16348019  0.76298268  1
  Al  Al1  1  0.50768901  0.66356447  0.26374722  1
  Re  Re2  1  0.00768538  0.66358108  0.26245177  1
  Re  Re3  1  0.50822878  0.16353331  0.26327747  1
  Re  Re4  1  0.50736702  0.66337965  0.76368238  1
