# generated using pymatgen
data_CeWN3
_symmetry_space_group_name_H-M   'P 1'
_cell_length_a   3.98002091
_cell_length_b   3.98298421
_cell_length_c   7.96281161
_cell_angle_alpha   90.01216963
_cell_angle_beta   90.00705976
_cell_angle_gamma   89.98886086
_symmetry_Int_Tables_number   1
_chemical_formula_structural   CeWN3
_chemical_formula_sum   'Ce2 W2 N6'
_cell_volume   126.22935373
_cell_formula_units_Z   2
loop_
 _symmetry_equiv_pos_site_id
 _symmetry_equiv_pos_as_xyz
  1  'x, y, z'
loop_
 _atom_site_type_symbol
 _atom_site_label
 _atom_site_symmetry_multiplicity
 _atom_site_fract_x
 _atom_site_fract_y
 _atom_site_fract_z
 _atom_site_occupancy
  Ce  Ce0  1  0.48747237  0.37490229  0.82724013  1
  Ce  Ce1  1  0.48568747  0.37303572  0.32726049  1
  W  W2  1  0.98584627  0.87440458  0.07809905  1
  W  W3  1  0.98588839  0.87183263  0.57829273  1
  N  N4  1  0.48589191  0.87113817  0.57876532  1
  N  N5  1  0.98552621  0.87243537  0.82818817  1
  N  N6  1  0.98579890  0.37205642  0.57839996  1
  N  N7  1  0.98617841  0.87317204  0.32824246  1
  N  N8  1  0.98588511  0.37401814  0.07773189  1
  N  N9  1  0.48589351  0.87474675  0.07849225  1
