# generated using pymatgen
data_Co3Se4
_symmetry_space_group_name_H-M   'P 1'
_cell_length_a   3.60080182
_cell_length_b   5.20930187
_cell_length_c   6.15475414
_cell_angle_alpha   90.06086013
_cell_angle_beta   90.03886215
_cell_angle_gamma   90.02273118
_symmetry_Int_Tables_number   1
_chemical_formula_structural   Co3Se4
_chemical_formula_sum   'Co3 Se4'
_cell_volume   115.44870729
_cell_formula_units_Z   1
loop_
 _symmetry_equiv_pos_site_id
 _symmetry_equiv_pos_as_xyz
  1  'x, y, z'
loop_
 _atom_site_type_symbol
 _atom_site_label
 _atom_site_symmetry_multiplicity
 _atom_site_fract_x
 _atom_site_fract_y
 _atom_site_fract_z
 _atom_site_occupancy
  Co  Co0  1  0.71777900  0.72661495  0.23101155  1
  Co  Co1  1  0.21790183  0.72547307  0.73115953  1
  Co  Co2  1  0.21787909  0.22563843  0.73093551  1
  Se  Se3  1  0.21748161  0.95731583  0.39778498  1
  Se  Se4  1  0.71798942  0.97108471  0.89849413  1
  Se  Se5  1  0.71763795  0.48059275  0.56351228  1
  Se  Se6  1  0.21783623  0.49452412  0.06491471  1
