# generated using pymatgen
data_CoAg3Sn2Se5Cl
_symmetry_space_group_name_H-M   'P 1'
_cell_length_a   6.90103223
_cell_length_b   7.14922389
_cell_length_c   6.82896972
_cell_angle_alpha   80.04881837
_cell_angle_beta   62.68334822
_cell_angle_gamma   72.03696036
_symmetry_Int_Tables_number   1
_chemical_formula_structural   CoAg3Sn2Se5Cl
_chemical_formula_sum   'Co1 Ag3 Sn2 Se5 Cl1'
_cell_volume   284.56226572
_cell_formula_units_Z   1
loop_
 _symmetry_equiv_pos_site_id
 _symmetry_equiv_pos_as_xyz
  1  'x, y, z'
loop_
 _atom_site_type_symbol
 _atom_site_label
 _atom_site_symmetry_multiplicity
 _atom_site_fract_x
 _atom_site_fract_y
 _atom_site_fract_z
 _atom_site_occupancy
  Co  Co0  1  0.14446699  0.87121012  0.79119918  1
  Ag  Ag1  1  0.13723337  0.32737760  0.18616251  1
  Ag  Ag2  1  0.28635082  0.36444508  0.54019491  1
  Ag  Ag3  1  0.54359163  0.67260850  0.11630630  1
  Sn  Sn4  1  0.59894942  0.36466537  0.81616228  1
  Sn  Sn5  1  0.78659259  0.88005172  0.49492906  1
  Se  Se6  1  0.49446686  0.68026420  0.52049938  1
  Se  Se7  1  0.15131461  0.69621021  0.12276271  1
  Se  Se8  1  0.35989813  0.07657641  0.82984294  1
  Se  Se9  1  0.94034354  0.65628915  0.78354682  1
  Se  Se10  1  0.01108144  0.11240970  0.55468315  1
  Cl  Cl11  1  0.68819938  0.17496368  0.20325934  1
