# generated using pymatgen
data_Cs2ZnAsF6
_symmetry_space_group_name_H-M   'P 1'
_cell_length_a   4.70840376
_cell_length_b   7.23205754
_cell_length_c   6.86264006
_cell_angle_alpha   118.17757607
_cell_angle_beta   89.95517715
_cell_angle_gamma   87.63264685
_symmetry_Int_Tables_number   1
_chemical_formula_structural   Cs2ZnAsF6
_chemical_formula_sum   'Cs2 Zn1 As1 F6'
_cell_volume   205.75826714
_cell_formula_units_Z   1
loop_
 _symmetry_equiv_pos_site_id
 _symmetry_equiv_pos_as_xyz
  1  'x, y, z'
loop_
 _atom_site_type_symbol
 _atom_site_label
 _atom_site_symmetry_multiplicity
 _atom_site_fract_x
 _atom_site_fract_y
 _atom_site_fract_z
 _atom_site_occupancy
  Cs  Cs0  1  0.48785204  0.41704328  0.39826199  1
  Cs  Cs1  1  -0.02313045  0.03611130  0.70724003  1
  Zn  Zn2  1  0.27280334  0.87642273  0.12806492  1
  As  As3  1  0.80071212  0.65095351  0.01483482  1
  F  F4  1  0.48321979  0.89492036  0.88921502  1
  F  F5  1  0.48342212  0.89294140  0.38437066  1
  F  F6  1  0.02088973  0.12344908  0.25281414  1
  F  F7  1  0.57355213  0.41177198  0.89516906  1
  F  F8  1  -0.03454718  0.51936297  0.73275820  1
  F  F9  1  -0.03441782  0.51753819  0.16410806  1
