# generated using pymatgen
data_Cs2ZnCuBr3Cl
_symmetry_space_group_name_H-M   'P 1'
_cell_length_a   5.22037802
_cell_length_b   5.16962469
_cell_length_c   11.18119487
_cell_angle_alpha   89.99294907
_cell_angle_beta   76.65702426
_cell_angle_gamma   89.97462301
_symmetry_Int_Tables_number   1
_chemical_formula_structural   Cs2ZnCuBr3Cl
_chemical_formula_sum   'Cs2 Zn1 Cu1 Br3 Cl1'
_cell_volume   293.60583358
_cell_formula_units_Z   1
loop_
 _symmetry_equiv_pos_site_id
 _symmetry_equiv_pos_as_xyz
  1  'x, y, z'
loop_
 _atom_site_type_symbol
 _atom_site_label
 _atom_site_symmetry_multiplicity
 _atom_site_fract_x
 _atom_site_fract_y
 _atom_site_fract_z
 _atom_site_occupancy
  Cs  Cs0  1  0.70497973  0.62274778  0.76298277  1
  Cs  Cs1  1  0.93158720  0.62419707  0.30107094  1
  Zn  Zn2  1  0.07645730  0.12601957  0.02435682  1
  Cu  Cu3  1  0.30590023  0.12196913  0.56321408  1
  Br  Br4  1  0.32275497  0.62299545  0.52432101  1
  Br  Br5  1  0.54846170  0.12740018  0.08133645  1
  Br  Br6  1  0.82183797  0.12293012  0.52633376  1
  Cl  Cl7  1  0.18686858  0.12225615  0.80054722  1
