# generated using pymatgen
data_Cs4LiHBr3F
_symmetry_space_group_name_H-M   'P 1'
_cell_length_a   4.67253801
_cell_length_b   5.76265953
_cell_length_c   15.81275728
_cell_angle_alpha   89.33636835
_cell_angle_beta   89.97720948
_cell_angle_gamma   113.96814766
_symmetry_Int_Tables_number   1
_chemical_formula_structural   Cs4LiHBr3F
_chemical_formula_sum   'Cs4 Li1 H1 Br3 F1'
_cell_volume   389.03178003
_cell_formula_units_Z   1
loop_
 _symmetry_equiv_pos_site_id
 _symmetry_equiv_pos_as_xyz
  1  'x, y, z'
loop_
 _atom_site_type_symbol
 _atom_site_label
 _atom_site_symmetry_multiplicity
 _atom_site_fract_x
 _atom_site_fract_y
 _atom_site_fract_z
 _atom_site_occupancy
  Cs  Cs0  1  0.04355951  0.74742219  0.14873946  1
  Cs  Cs1  1  0.62765902  0.92086825  0.59423364  1
  Cs  Cs2  1  0.38709942  0.43578558  0.40986049  1
  Cs  Cs3  1  0.71734432  0.09789562  0.87935295  1
  Li  Li4  1  0.91342489  0.49503656  0.61471323  1
  H  H5  1  0.34363170  0.35177528  0.60433929  1
  Br  Br6  1  0.36090334  0.38367330  0.02366136  1
  Br  Br7  1  0.01540382  0.69650019  0.75868902  1
  Br  Br8  1  0.69505333  0.05081018  0.29058900  1
  F  F9  1  0.99043989  0.64505497  0.51422557  1
