# generated using pymatgen
data_CsCdHg2I5
_symmetry_space_group_name_H-M   'P 1'
_cell_length_a   4.87387197
_cell_length_b   4.87908768
_cell_length_c   19.67230993
_cell_angle_alpha   79.81002803
_cell_angle_beta   79.82329691
_cell_angle_gamma   64.41925800
_symmetry_Int_Tables_number   1
_chemical_formula_structural   CsCdHg2I5
_chemical_formula_sum   'Cs1 Cd1 Hg2 I5'
_cell_volume   412.63821702
_cell_formula_units_Z   1
loop_
 _symmetry_equiv_pos_site_id
 _symmetry_equiv_pos_as_xyz
  1  'x, y, z'
loop_
 _atom_site_type_symbol
 _atom_site_label
 _atom_site_symmetry_multiplicity
 _atom_site_fract_x
 _atom_site_fract_y
 _atom_site_fract_z
 _atom_site_occupancy
  Cs  Cs0  1  0.96281194  0.49542026  0.77695688  1
  Cd  Cd1  1  0.32984187  0.89057665  0.04646900  1
  Hg  Hg2  1  0.61854073  0.14198532  0.21573664  1
  Hg  Hg3  1  0.46003001  -0.00661899  0.50128390  1
  I  I4  1  0.54547172  0.07547220  0.90951773  1
  I  I5  1  0.83291133  0.36741255  0.45643541  1
  I  I6  1  0.24383746  0.77149100  0.29033539  1
  I  I7  1  0.37739175  0.91138034  0.65364060  1
  I  I8  1  0.97632543  0.52331372  0.10026678  1
