# generated using pymatgen
data_CsNd2Cu2PbF12
_symmetry_space_group_name_H-M   'P 1'
_cell_length_a   5.71952904
_cell_length_b   6.19130726
_cell_length_c   9.66699922
_cell_angle_alpha   102.52899967
_cell_angle_beta   106.82417026
_cell_angle_gamma   89.84418163
_symmetry_Int_Tables_number   1
_chemical_formula_structural   CsNd2Cu2PbF12
_chemical_formula_sum   'Cs1 Nd2 Cu2 Pb1 F12'
_cell_volume   319.20473713
_cell_formula_units_Z   1
loop_
 _symmetry_equiv_pos_site_id
 _symmetry_equiv_pos_as_xyz
  1  'x, y, z'
loop_
 _atom_site_type_symbol
 _atom_site_label
 _atom_site_symmetry_multiplicity
 _atom_site_fract_x
 _atom_site_fract_y
 _atom_site_fract_z
 _atom_site_occupancy
  Cs  Cs0  1  0.84930121  0.37506214  0.11598117  1
  Nd  Nd1  1  0.71795127  0.70940421  0.71525103  1
  Nd  Nd2  1  0.50518475  0.03276107  0.36822064  1
  Cu  Cu3  1  0.31483628  0.83540222  0.95151601  1
  Cu  Cu4  1  0.06890752  0.73485607  0.46476713  1
  Pb  Pb5  1  0.23005590  0.25838367  0.71788944  1
  F  F6  1  0.91821956  0.14035049  0.47435726  1
  F  F7  1  0.36242845  0.25298276  0.21669164  1
  F  F8  1  0.04703252  0.59211067  0.89871079  1
  F  F9  1  0.54158313  0.82542855  0.14707062  1
  F  F10  1  0.51053988  0.36157175  0.56469494  1
  F  F11  1  0.41810267  0.93279776  0.58574091  1
  F  F12  1  0.14213895  0.80712784  0.29816171  1
  F  F13  1  0.02668191  0.99597130  0.82900617  1
  F  F14  1  0.55252106  0.53230048  0.85466897  1
  F  F15  1  0.08557025  0.60497062  0.63471229  1
  F  F16  1  0.55070409  0.98201242  0.87610245  1
  F  F17  1  0.70848343  0.72040679  0.45658914  1
