# generated using pymatgen
data_CsRbBe2OF7
_symmetry_space_group_name_H-M   'P 1'
_cell_length_a   5.00100298
_cell_length_b   5.08991529
_cell_length_c   10.97538215
_cell_angle_alpha   104.68307424
_cell_angle_beta   112.29187019
_cell_angle_gamma   105.19867305
_symmetry_Int_Tables_number   1
_chemical_formula_structural   CsRbBe2OF7
_chemical_formula_sum   'Cs1 Rb1 Be2 O1 F7'
_cell_volume   229.14176033
_cell_formula_units_Z   1
loop_
 _symmetry_equiv_pos_site_id
 _symmetry_equiv_pos_as_xyz
  1  'x, y, z'
loop_
 _atom_site_type_symbol
 _atom_site_label
 _atom_site_symmetry_multiplicity
 _atom_site_fract_x
 _atom_site_fract_y
 _atom_site_fract_z
 _atom_site_occupancy
  Cs  Cs0  1  0.30550911  0.33533024  0.26638420  1
  Rb  Rb1  1  0.07800443  0.75331814  0.82848471  1
  Be  Be2  1  0.27142127  -0.07289360  0.54741877  1
  Be  Be3  1  0.59981781  0.65577472  0.06571915  1
  O  O4  1  0.34593313  0.21784962  0.68437412  1
  F  F5  1  0.72955691  0.78000264  0.97346775  1
  F  F6  1  0.05728964  0.64414418  0.52820760  1
  F  F7  1  0.50169497  0.89470608  0.13751654  1
  F  F8  1  0.59170599  0.17032562  0.78685312  1
  F  F9  1  0.84415038  0.61139988  0.18726827  1
  F  F10  1  0.46555522  -0.00809492  0.47931331  1
  F  F11  1  0.29329910  0.36414337  0.96416390  1
