# generated using pymatgen
data_CsSc2Cl7
_symmetry_space_group_name_H-M   'P 1'
_cell_length_a   6.54861172
_cell_length_b   7.32802732
_cell_length_c   7.36145356
_cell_angle_alpha   92.30511426
_cell_angle_beta   91.75547116
_cell_angle_gamma   87.36329273
_symmetry_Int_Tables_number   1
_chemical_formula_structural   CsSc2Cl7
_chemical_formula_sum   'Cs1 Sc2 Cl7'
_cell_volume   352.45821949
_cell_formula_units_Z   1
loop_
 _symmetry_equiv_pos_site_id
 _symmetry_equiv_pos_as_xyz
  1  'x, y, z'
loop_
 _atom_site_type_symbol
 _atom_site_label
 _atom_site_symmetry_multiplicity
 _atom_site_fract_x
 _atom_site_fract_y
 _atom_site_fract_z
 _atom_site_occupancy
  Cs  Cs0  1  0.55080538  0.73158274  0.69471177  1
  Sc  Sc1  1  0.58803631  0.22005883  0.20026059  1
  Sc  Sc2  1  0.05919582  0.22292559  0.19593998  1
  Cl  Cl3  1  0.82610692  0.01928832  0.40032329  1
  Cl  Cl4  1  0.32426845  0.15869649  0.94474402  1
  Cl  Cl5  1  0.32872310  0.04671682  0.37217752  1
  Cl  Cl6  1  0.79597306  0.42475496  0.99443045  1
  Cl  Cl7  1  0.83391283  0.42949162  0.41057737  1
  Cl  Cl8  1  0.31810169  0.47539736  0.25999821  1
  Cl  Cl9  1  0.84113885  0.00696511  0.99149564  1
