# generated using pymatgen
data_Cu2Bi2SeO6
_symmetry_space_group_name_H-M   'P 1'
_cell_length_a   3.94079294
_cell_length_b   7.12546514
_cell_length_c   7.65292653
_cell_angle_alpha   70.00012403
_cell_angle_beta   90.88620332
_cell_angle_gamma   64.27164469
_symmetry_Int_Tables_number   1
_chemical_formula_structural   Cu2Bi2SeO6
_chemical_formula_sum   'Cu2 Bi2 Se1 O6'
_cell_volume   178.47135858
_cell_formula_units_Z   1
loop_
 _symmetry_equiv_pos_site_id
 _symmetry_equiv_pos_as_xyz
  1  'x, y, z'
loop_
 _atom_site_type_symbol
 _atom_site_label
 _atom_site_symmetry_multiplicity
 _atom_site_fract_x
 _atom_site_fract_y
 _atom_site_fract_z
 _atom_site_occupancy
  Cu  Cu0  1  0.13896043  0.67102839  0.94663276  1
  Cu  Cu1  1  0.65385331  0.65765717  0.72727967  1
  Bi  Bi2  1  0.47578259  0.22883374  0.78507843  1
  Bi  Bi3  1  0.74868193  0.53922686  0.30633322  1
  Se  Se4  1  0.65830488  0.04807224  0.29110048  1
  O  O5  1  0.54852417  0.82752059  0.41214833  1
  O  O6  1  0.45011748  0.22040642  0.41443265  1
  O  O7  1  0.89364386  0.35398695  0.63645092  1
  O  O8  1  0.20713215  0.59759213  0.73814865  1
  O  O9  1  0.30579457  0.19580092  0.08255851  1
  O  O10  1  0.08357049  0.72257007  0.16566181  1
