# generated using pymatgen
data_Cu2PdAu
_symmetry_space_group_name_H-M   'P 1'
_cell_length_a   2.77861131
_cell_length_b   2.77998639
_cell_length_c   9.21930137
_cell_angle_alpha   72.46834326
_cell_angle_beta   72.46355934
_cell_angle_gamma   59.96354435
_symmetry_Int_Tables_number   1
_chemical_formula_structural   Cu2PdAu
_chemical_formula_sum   'Cu2 Pd1 Au1'
_cell_volume   57.80160373
_cell_formula_units_Z   1
loop_
 _symmetry_equiv_pos_site_id
 _symmetry_equiv_pos_as_xyz
  1  'x, y, z'
loop_
 _atom_site_type_symbol
 _atom_site_label
 _atom_site_symmetry_multiplicity
 _atom_site_fract_x
 _atom_site_fract_y
 _atom_site_fract_z
 _atom_site_occupancy
  Cu  Cu0  1  0.31830493  0.40858345  0.24012617  1
  Cu  Cu1  1  0.79994628  0.89270059  0.01542396  1
  Pd  Pd2  1  0.82207613  0.91425786  0.48182617  1
  Au  Au3  1  0.30287808  0.39662037  0.76061181  1
