# generated using pymatgen
data_Cu3ClO4
_symmetry_space_group_name_H-M   'P 1'
_cell_length_a   2.86629375
_cell_length_b   10.13682219
_cell_length_c   5.15832796
_cell_angle_alpha   112.42759997
_cell_angle_beta   106.77569325
_cell_angle_gamma   85.26471051
_symmetry_Int_Tables_number   1
_chemical_formula_structural   Cu3ClO4
_chemical_formula_sum   'Cu3 Cl1 O4'
_cell_volume   132.57923142
_cell_formula_units_Z   1
loop_
 _symmetry_equiv_pos_site_id
 _symmetry_equiv_pos_as_xyz
  1  'x, y, z'
loop_
 _atom_site_type_symbol
 _atom_site_label
 _atom_site_symmetry_multiplicity
 _atom_site_fract_x
 _atom_site_fract_y
 _atom_site_fract_z
 _atom_site_occupancy
  Cu  Cu0  1  0.17997709  0.59127860  0.44335974  1
  Cu  Cu1  1  0.68344828  0.32040766  0.29886585  1
  Cu  Cu2  1  0.42716226  0.72040082  0.03939140  1
  Cl  Cl3  1  0.59904800  0.09738628  0.01344890  1
  O  O4  1  0.05385454  0.74654919  0.29809299  1
  O  O5  1  0.57782247  0.48695603  0.18334855  1
  O  O6  1  0.79361977  0.70378760  0.77445730  1
  O  O7  1  0.28142064  0.41689901  0.54178381  1
