# generated using pymatgen
data_CuCl3
_symmetry_space_group_name_H-M   'P 1'
_cell_length_a   4.37215208
_cell_length_b   7.94922881
_cell_length_c   8.33107244
_cell_angle_alpha   71.06965570
_cell_angle_beta   118.11797554
_cell_angle_gamma   112.34952300
_symmetry_Int_Tables_number   1
_chemical_formula_structural   CuCl3
_chemical_formula_sum   'Cu2 Cl6'
_cell_volume   232.41981621
_cell_formula_units_Z   2
loop_
 _symmetry_equiv_pos_site_id
 _symmetry_equiv_pos_as_xyz
  1  'x, y, z'
loop_
 _atom_site_type_symbol
 _atom_site_label
 _atom_site_symmetry_multiplicity
 _atom_site_fract_x
 _atom_site_fract_y
 _atom_site_fract_z
 _atom_site_occupancy
  Cu  Cu0  1  0.11450110  0.59146494  0.84301036  1
  Cu  Cu1  1  0.52560346  0.30162619  0.19441363  1
  Cl  Cl2  1  0.63571416  0.60705529  0.09495888  1
  Cl  Cl3  1  0.23051095  0.88309928  0.76014729  1
  Cl  Cl4  1  0.41011388  0.00966704  0.27687296  1
  Cl  Cl5  1  0.00424980  0.28663290  0.94218142  1
  Cl  Cl6  1  0.60673306  0.57264141  0.60588287  1
  Cl  Cl7  1  0.03384117  0.32072477  0.43140590  1
