# generated using pymatgen
data_CuPdC
_symmetry_space_group_name_H-M   'P 1'
_cell_length_a   3.08957141
_cell_length_b   3.09470271
_cell_length_c   4.21521025
_cell_angle_alpha   90.12041178
_cell_angle_beta   90.15093029
_cell_angle_gamma   59.87524223
_symmetry_Int_Tables_number   1
_chemical_formula_structural   CuPdC
_chemical_formula_sum   'Cu1 Pd1 C1'
_cell_volume   34.85924847
_cell_formula_units_Z   1
loop_
 _symmetry_equiv_pos_site_id
 _symmetry_equiv_pos_as_xyz
  1  'x, y, z'
loop_
 _atom_site_type_symbol
 _atom_site_label
 _atom_site_symmetry_multiplicity
 _atom_site_fract_x
 _atom_site_fract_y
 _atom_site_fract_z
 _atom_site_occupancy
  Cu  Cu0  1  0.16336455  0.80383108  0.12430162  1
  Pd  Pd1  1  0.82948792  0.47270239  0.63159079  1
  C  C2  1  0.49646690  0.13830751  0.36809704  1
