# generated using pymatgen
data_Dy2Cu2Ge
_symmetry_space_group_name_H-M   'P 1'
_cell_length_a   4.12467131
_cell_length_b   3.60641505
_cell_length_c   6.92399775
_cell_angle_alpha   90.09827934
_cell_angle_beta   72.74533948
_cell_angle_gamma   90.03628630
_symmetry_Int_Tables_number   1
_chemical_formula_structural   Dy2Cu2Ge
_chemical_formula_sum   'Dy2 Cu2 Ge1'
_cell_volume   98.36096896
_cell_formula_units_Z   1
loop_
 _symmetry_equiv_pos_site_id
 _symmetry_equiv_pos_as_xyz
  1  'x, y, z'
loop_
 _atom_site_type_symbol
 _atom_site_label
 _atom_site_symmetry_multiplicity
 _atom_site_fract_x
 _atom_site_fract_y
 _atom_site_fract_z
 _atom_site_occupancy
  Dy  Dy0  1  0.10256219  0.24392567  0.19495081  1
  Dy  Dy1  1  0.85451142  0.24099842  0.69062325  1
  Cu  Cu2  1  0.67630549  0.74281783  0.04709006  1
  Cu  Cu3  1  0.28058035  0.74198712  0.83863503  1
  Ge  Ge4  1  0.47848255  0.74226687  0.44285290  1
