# generated using pymatgen
data_Dy2CdHg
_symmetry_space_group_name_H-M   'P 1'
_cell_length_a   5.27861860
_cell_length_b   5.28062819
_cell_length_c   5.27846286
_cell_angle_alpha   59.93256502
_cell_angle_beta   59.92993054
_cell_angle_gamma   59.93969215
_symmetry_Int_Tables_number   1
_chemical_formula_structural   Dy2CdHg
_chemical_formula_sum   'Dy2 Cd1 Hg1'
_cell_volume   103.88391982
_cell_formula_units_Z   1
loop_
 _symmetry_equiv_pos_site_id
 _symmetry_equiv_pos_as_xyz
  1  'x, y, z'
loop_
 _atom_site_type_symbol
 _atom_site_label
 _atom_site_symmetry_multiplicity
 _atom_site_fract_x
 _atom_site_fract_y
 _atom_site_fract_z
 _atom_site_occupancy
  Dy  Dy0  1  0.66906489  0.36591648  0.01478171  1
  Dy  Dy1  1  0.16877809  0.86610315  0.51471900  1
  Cd  Cd2  1  0.42016430  0.11607680  0.76430584  1
  Hg  Hg3  1  0.91942423  0.61528964  0.26501697  1
