# generated using pymatgen
data_Dy3AgO4
_symmetry_space_group_name_H-M   'P 1'
_cell_length_a   3.39744033
_cell_length_b   3.39725884
_cell_length_c   9.83791143
_cell_angle_alpha   89.98122360
_cell_angle_beta   90.03278074
_cell_angle_gamma   90.02346995
_symmetry_Int_Tables_number   1
_chemical_formula_structural   Dy3AgO4
_chemical_formula_sum   'Dy3 Ag1 O4'
_cell_volume   113.54898418
_cell_formula_units_Z   1
loop_
 _symmetry_equiv_pos_site_id
 _symmetry_equiv_pos_as_xyz
  1  'x, y, z'
loop_
 _atom_site_type_symbol
 _atom_site_label
 _atom_site_symmetry_multiplicity
 _atom_site_fract_x
 _atom_site_fract_y
 _atom_site_fract_z
 _atom_site_occupancy
  Dy  Dy0  1  0.33414902  0.47888984  0.33341636  1
  Dy  Dy1  1  0.33681696  0.47855007  0.87209414  1
  Dy  Dy2  1  0.83593545  0.97850160  0.60279839  1
  Ag  Ag3  1  0.83546250  0.97985397  0.10281307  1
  O  O4  1  0.33537192  0.47969649  0.10288120  1
  O  O5  1  0.33653788  0.47799509  0.60284771  1
  O  O6  1  0.83445555  0.97892085  0.36599480  1
  O  O7  1  0.83707546  0.97828921  0.83979813  1
