# generated using pymatgen
data_DyCo2C
_symmetry_space_group_name_H-M   'P 1'
_cell_length_a   3.66702347
_cell_length_b   3.66741770
_cell_length_c   8.53910875
_cell_angle_alpha   90.15659961
_cell_angle_beta   89.92698107
_cell_angle_gamma   90.00530299
_symmetry_Int_Tables_number   1
_chemical_formula_structural   DyCo2C
_chemical_formula_sum   'Dy2 Co4 C2'
_cell_volume   114.83773931
_cell_formula_units_Z   2
loop_
 _symmetry_equiv_pos_site_id
 _symmetry_equiv_pos_as_xyz
  1  'x, y, z'
loop_
 _atom_site_type_symbol
 _atom_site_label
 _atom_site_symmetry_multiplicity
 _atom_site_fract_x
 _atom_site_fract_y
 _atom_site_fract_z
 _atom_site_occupancy
  Dy  Dy0  1  0.84476871  0.93216226  0.36093114  1
  Dy  Dy1  1  0.34511310  0.43147531  0.05152735  1
  Co  Co2  1  0.84567028  0.93032434  0.87089792  1
  Co  Co3  1  0.34426021  0.43305823  0.54165694  1
  Co  Co4  1  0.84413027  0.42998188  0.70621131  1
  Co  Co5  1  0.34582621  0.93317203  0.70624343  1
  C  C6  1  0.34472506  0.43222499  0.33557830  1
  C  C7  1  0.84509509  0.93152352  0.07692531  1
