# generated using pymatgen
data_DyHg
_symmetry_space_group_name_H-M   'P 1'
_cell_length_a   5.21351913
_cell_length_b   5.21442814
_cell_length_c   9.11531028
_cell_angle_alpha   89.97466386
_cell_angle_beta   90.02400905
_cell_angle_gamma   120.01383510
_symmetry_Int_Tables_number   1
_chemical_formula_structural   DyHg
_chemical_formula_sum   'Dy4 Hg4'
_cell_volume   214.57500411
_cell_formula_units_Z   4
loop_
 _symmetry_equiv_pos_site_id
 _symmetry_equiv_pos_as_xyz
  1  'x, y, z'
loop_
 _atom_site_type_symbol
 _atom_site_label
 _atom_site_symmetry_multiplicity
 _atom_site_fract_x
 _atom_site_fract_y
 _atom_site_fract_z
 _atom_site_occupancy
  Dy  Dy0  1  0.52335607  0.73381929  0.19132981  1
  Dy  Dy1  1  0.85740059  0.40049436  0.44118118  1
  Dy  Dy2  1  0.19115473  0.06747749  0.69037476  1
  Dy  Dy3  1  0.85710481  0.40078911  0.94162130  1
  Hg  Hg4  1  0.19019068  0.06689125  0.34934370  1
  Hg  Hg5  1  0.52466669  0.73402114  0.53149781  1
  Hg  Hg6  1  0.52401088  0.73434198  0.85066476  1
  Hg  Hg7  1  0.19018594  0.06764885  0.03010021  1
