# generated using pymatgen
data_Er2AlAgF4
_symmetry_space_group_name_H-M   'P 1'
_cell_length_a   3.51255540
_cell_length_b   6.62892616
_cell_length_c   7.99796254
_cell_angle_alpha   124.54502000
_cell_angle_beta   89.02751577
_cell_angle_gamma   91.31846430
_symmetry_Int_Tables_number   1
_chemical_formula_structural   Er2AlAgF4
_chemical_formula_sum   'Er2 Al1 Ag1 F4'
_cell_volume   153.35035549
_cell_formula_units_Z   1
loop_
 _symmetry_equiv_pos_site_id
 _symmetry_equiv_pos_as_xyz
  1  'x, y, z'
loop_
 _atom_site_type_symbol
 _atom_site_label
 _atom_site_symmetry_multiplicity
 _atom_site_fract_x
 _atom_site_fract_y
 _atom_site_fract_z
 _atom_site_occupancy
  Er  Er0  1  0.73540229  0.05424765  0.88956750  1
  Er  Er1  1  0.23881657  0.60904442  0.38255856  1
  Al  Al2  1  0.25231331  0.45680219  0.88598142  1
  Ag  Ag3  1  0.75407926  0.74951251  0.11841480  1
  F  F4  1  0.23362026  0.19946432  0.10857616  1
  F  F5  1  0.23221831  0.80739211  0.72736596  1
  F  F6  1  0.74313933  0.88617506  0.54347239  1
  F  F7  1  0.73172128  0.43165409  0.40262989  1
