# generated using pymatgen
data_Er2Cu3PbS6
_symmetry_space_group_name_H-M   'P 1'
_cell_length_a   3.80224388
_cell_length_b   6.55380736
_cell_length_c   9.68587512
_cell_angle_alpha   88.64789465
_cell_angle_beta   89.98444101
_cell_angle_gamma   89.99905031
_symmetry_Int_Tables_number   1
_chemical_formula_structural   Er2Cu3PbS6
_chemical_formula_sum   'Er2 Cu3 Pb1 S6'
_cell_volume   241.29679334
_cell_formula_units_Z   1
loop_
 _symmetry_equiv_pos_site_id
 _symmetry_equiv_pos_as_xyz
  1  'x, y, z'
loop_
 _atom_site_type_symbol
 _atom_site_label
 _atom_site_symmetry_multiplicity
 _atom_site_fract_x
 _atom_site_fract_y
 _atom_site_fract_z
 _atom_site_occupancy
  Er  Er0  1  0.11742743  0.36590454  0.72244270  1
  Er  Er1  1  0.11777063  0.18980504  0.08499736  1
  Cu  Cu2  1  0.61785814  0.79934350  0.84103628  1
  Cu  Cu3  1  0.61675909  0.43725883  0.41887153  1
  Cu  Cu4  1  0.61777852  0.61053301  0.15574492  1
  Pb  Pb5  1  0.11745081  0.89107254  0.44716294  1
  S  S6  1  0.11710009  0.47228473  0.28177790  1
  S  S7  1  0.61760644  0.95560853  0.20166873  1
  S  S8  1  0.61734974  0.64146181  0.62414922  1
  S  S9  1  0.61747100  0.17065470  0.56898187  1
  S  S10  1  0.11777370  0.98228383  0.85261779  1
  S  S11  1  0.61774859  0.43685271  0.94549885  1
