# generated using pymatgen
data_Er2Pd4Se5Br
_symmetry_space_group_name_H-M   'P 1'
_cell_length_a   5.49492958
_cell_length_b   5.56967684
_cell_length_c   8.75206613
_cell_angle_alpha   108.51735431
_cell_angle_beta   90.03268763
_cell_angle_gamma   90.00116043
_symmetry_Int_Tables_number   1
_chemical_formula_structural   Er2Pd4Se5Br
_chemical_formula_sum   'Er2 Pd4 Se5 Br1'
_cell_volume   253.98916300
_cell_formula_units_Z   1
loop_
 _symmetry_equiv_pos_site_id
 _symmetry_equiv_pos_as_xyz
  1  'x, y, z'
loop_
 _atom_site_type_symbol
 _atom_site_label
 _atom_site_symmetry_multiplicity
 _atom_site_fract_x
 _atom_site_fract_y
 _atom_site_fract_z
 _atom_site_occupancy
  Er  Er0  1  0.21315146  0.65022391  0.96803876  1
  Er  Er1  1  0.21659263  0.31056629  0.28850231  1
  Pd  Pd2  1  0.71591334  0.14803487  0.97346461  1
  Pd  Pd3  1  0.71427096  0.47922801  0.63304534  1
  Pd  Pd4  1  0.71393534  0.80640902  0.29170448  1
  Pd  Pd5  1  0.21504186  0.97678792  0.63172898  1
  Se  Se6  1  0.21388355  0.81795786  0.30595739  1
  Se  Se7  1  0.71363090  0.63732219  0.95301004  1
  Se  Se8  1  0.21576700  0.14112079  0.95303358  1
  Se  Se9  1  0.71483476  0.97784005  0.63120265  1
  Se  Se10  1  0.71579077  0.31789342  0.31342392  1
  Br  Br11  1  0.21430589  0.47598212  0.62892930  1
