# generated using pymatgen
data_Er3PbI10
_symmetry_space_group_name_H-M   'P 1'
_cell_length_a   4.33026849
_cell_length_b   7.76576771
_cell_length_c   19.18602805
_cell_angle_alpha   95.84735662
_cell_angle_beta   89.97900812
_cell_angle_gamma   89.99622996
_symmetry_Int_Tables_number   1
_chemical_formula_structural   Er3PbI10
_chemical_formula_sum   'Er3 Pb1 I10'
_cell_volume   641.82800425
_cell_formula_units_Z   1
loop_
 _symmetry_equiv_pos_site_id
 _symmetry_equiv_pos_as_xyz
  1  'x, y, z'
loop_
 _atom_site_type_symbol
 _atom_site_label
 _atom_site_symmetry_multiplicity
 _atom_site_fract_x
 _atom_site_fract_y
 _atom_site_fract_z
 _atom_site_occupancy
  Er  Er0  1  0.37088394  0.76502217  0.18210055  1
  Er  Er1  1  0.87131102  0.17932120  0.98205904  1
  Er  Er2  1  0.37007351  0.62161898  0.60999856  1
  Pb  Pb3  1  0.87009175  0.35295854  0.39309788  1
  I  I4  1  0.87149575  0.86516307  0.90025561  1
  I  I5  1  0.36987688  0.25832888  0.50342364  1
  I  I6  1  0.87065563  0.58486547  0.08789214  1
  I  I7  1  0.37029975  0.47967088  0.27383576  1
  I  I8  1  0.37035490  0.94283800  0.68968122  1
  I  I9  1  0.86967265  0.44492801  0.68457025  1
  I  I10  1  0.87040692  0.96315693  0.26588557  1
  I  I11  1  0.37100026  0.09172370  0.08976794  1
  I  I12  1  0.87040446  0.72718475  0.50702496  1
  I  I13  1  0.37125857  0.36254094  0.91190471  1
