# generated using pymatgen
data_ErTl2In
_symmetry_space_group_name_H-M   'P 1'
_cell_length_a   5.44488183
_cell_length_b   5.44243595
_cell_length_c   5.44803532
_cell_angle_alpha   59.85487206
_cell_angle_beta   59.83570165
_cell_angle_gamma   59.92826851
_symmetry_Int_Tables_number   1
_chemical_formula_structural   ErTl2In
_chemical_formula_sum   'Er1 Tl2 In1'
_cell_volume   113.82882035
_cell_formula_units_Z   1
loop_
 _symmetry_equiv_pos_site_id
 _symmetry_equiv_pos_as_xyz
  1  'x, y, z'
loop_
 _atom_site_type_symbol
 _atom_site_label
 _atom_site_symmetry_multiplicity
 _atom_site_fract_x
 _atom_site_fract_y
 _atom_site_fract_z
 _atom_site_occupancy
  Er  Er0  1  0.70332894  0.11001044  0.73289934  1
  Tl  Tl1  1  0.95345128  0.36041197  0.98293157  1
  Tl  Tl2  1  0.20383966  0.61072873  0.23321096  1
  In  In3  1  0.45352812  0.86064156  0.48352067  1
