# generated using pymatgen
data_Eu2GaAgO4
_symmetry_space_group_name_H-M   'P 1'
_cell_length_a   6.75446286
_cell_length_b   3.71328534
_cell_length_c   5.53989750
_cell_angle_alpha   90.01556406
_cell_angle_beta   88.11481733
_cell_angle_gamma   105.99285325
_symmetry_Int_Tables_number   1
_chemical_formula_structural   Eu2GaAgO4
_chemical_formula_sum   'Eu2 Ga1 Ag1 O4'
_cell_volume   133.49184360
_cell_formula_units_Z   1
loop_
 _symmetry_equiv_pos_site_id
 _symmetry_equiv_pos_as_xyz
  1  'x, y, z'
loop_
 _atom_site_type_symbol
 _atom_site_label
 _atom_site_symmetry_multiplicity
 _atom_site_fract_x
 _atom_site_fract_y
 _atom_site_fract_z
 _atom_site_occupancy
  Eu  Eu0  1  0.32042941  0.76277932  0.02395148  1
  Eu  Eu1  1  0.97377782  0.08914338  0.50038324  1
  Ga  Ga2  1  0.51331363  0.35936742  0.56829746  1
  Ag  Ag3  1  0.77314301  0.48946102  -0.01813140  1
  O  O4  1  0.01627611  0.61018528  0.26236244  1
  O  O5  1  0.45651215  0.33086600  0.24115883  1
  O  O6  1  0.62024350  0.91250001  0.65233484  1
  O  O7  1  0.25799811  0.23166092  0.74786742  1
