# generated using pymatgen
data_EuAlO2
_symmetry_space_group_name_H-M   'P 1'
_cell_length_a   3.80784948
_cell_length_b   3.80780833
_cell_length_c   7.18809474
_cell_angle_alpha   89.99985252
_cell_angle_beta   89.99967903
_cell_angle_gamma   90.00014928
_symmetry_Int_Tables_number   1
_chemical_formula_structural   EuAlO2
_chemical_formula_sum   'Eu2 Al2 O4'
_cell_volume   104.22421802
_cell_formula_units_Z   2
loop_
 _symmetry_equiv_pos_site_id
 _symmetry_equiv_pos_as_xyz
  1  'x, y, z'
loop_
 _atom_site_type_symbol
 _atom_site_label
 _atom_site_symmetry_multiplicity
 _atom_site_fract_x
 _atom_site_fract_y
 _atom_site_fract_z
 _atom_site_occupancy
  Eu  Eu0  1  0.67845965  0.32347260  0.70230660  1
  Eu  Eu1  1  0.67845966  0.32347266  0.20230659  1
  Al  Al2  1  0.17846782  0.82346345  0.95187603  1
  Al  Al3  1  0.17847626  0.82346483  0.45274495  1
  O  O4  1  0.17846962  0.32346100  0.95240619  1
  O  O5  1  0.67847967  0.82346171  0.45220518  1
  O  O6  1  0.67847068  0.82346107  0.95240499  1
  O  O7  1  0.17848010  0.32346229  0.45220640  1
