# generated using pymatgen
data_EuAsAu
_symmetry_space_group_name_H-M   'P 1'
_cell_length_a   4.17376931
_cell_length_b   4.46822935
_cell_length_c   7.83655825
_cell_angle_alpha   89.99684346
_cell_angle_beta   89.99064337
_cell_angle_gamma   89.97603780
_symmetry_Int_Tables_number   1
_chemical_formula_structural   EuAsAu
_chemical_formula_sum   'Eu2 As2 Au2'
_cell_volume   146.14676947
_cell_formula_units_Z   2
loop_
 _symmetry_equiv_pos_site_id
 _symmetry_equiv_pos_as_xyz
  1  'x, y, z'
loop_
 _atom_site_type_symbol
 _atom_site_label
 _atom_site_symmetry_multiplicity
 _atom_site_fract_x
 _atom_site_fract_y
 _atom_site_fract_z
 _atom_site_occupancy
  Eu  Eu0  1  0.45272878  0.47958097  0.49364816  1
  Eu  Eu1  1  0.45205773  0.97976638  0.99412096  1
  As  As2  1  0.95142056  0.48001392  0.82893173  1
  As  As3  1  0.95198130  0.47932394  0.15808707  1
  Au  Au4  1  0.95279333  0.97922493  0.32117279  1
  Au  Au5  1  0.95326231  0.98007614  0.66656389  1
