# generated using pymatgen
data_Fe2SiN3
_symmetry_space_group_name_H-M   'P 1'
_cell_length_a   2.89245868
_cell_length_b   5.35736724
_cell_length_c   7.36937960
_cell_angle_alpha   89.46130634
_cell_angle_beta   89.99705209
_cell_angle_gamma   89.99888199
_symmetry_Int_Tables_number   1
_chemical_formula_structural   Fe2SiN3
_chemical_formula_sum   'Fe4 Si2 N6'
_cell_volume   114.19058883
_cell_formula_units_Z   2
loop_
 _symmetry_equiv_pos_site_id
 _symmetry_equiv_pos_as_xyz
  1  'x, y, z'
loop_
 _atom_site_type_symbol
 _atom_site_label
 _atom_site_symmetry_multiplicity
 _atom_site_fract_x
 _atom_site_fract_y
 _atom_site_fract_z
 _atom_site_occupancy
  Fe  Fe0  1  0.70504838  -0.01208405  0.35995790  1
  Fe  Fe1  1  0.70521415  0.66836126  0.67232217  1
  Fe  Fe2  1  0.70508374  0.32693799  0.06788717  1
  Fe  Fe3  1  0.20507427  0.51327822  0.36398645  1
  Si  Si4  1  0.20548167  0.16357887  0.70510112  1
  Si  Si5  1  0.20486717  0.82354695  0.01706245  1
  N  N6  1  0.20505690  0.82858854  0.25418207  1
  N  N7  1  0.70493358  0.66938739  0.94283924  1
  N  N8  1  0.20527443  0.46754968  0.62159794  1
  N  N9  1  0.20512879  0.14346526  0.94375356  1
  N  N10  1  0.70507671  0.32131968  0.30729000  1
  N  N11  1  0.70554987  0.02249451  0.62497981  1
