# generated using pymatgen
data_FeCo6SbN
_symmetry_space_group_name_H-M   'P 1'
_cell_length_a   3.72317424
_cell_length_b   3.76667485
_cell_length_c   7.32447087
_cell_angle_alpha   90.00937504
_cell_angle_beta   90.01251903
_cell_angle_gamma   89.99993047
_symmetry_Int_Tables_number   1
_chemical_formula_structural   FeCo6SbN
_chemical_formula_sum   'Fe1 Co6 Sb1 N1'
_cell_volume   102.71827871
_cell_formula_units_Z   1
loop_
 _symmetry_equiv_pos_site_id
 _symmetry_equiv_pos_as_xyz
  1  'x, y, z'
loop_
 _atom_site_type_symbol
 _atom_site_label
 _atom_site_symmetry_multiplicity
 _atom_site_fract_x
 _atom_site_fract_y
 _atom_site_fract_z
 _atom_site_occupancy
  Fe  Fe0  1  0.25898778  0.07862963  0.01492139  1
  Co  Co1  1  0.75903159  0.57846764  0.00625999  1
  Co  Co2  1  0.25888142  0.57848585  0.25998457  1
  Co  Co3  1  0.75892278  0.57859440  0.46928130  1
  Co  Co4  1  0.25892106  0.57851574  0.74425578  1
  Co  Co5  1  0.75897061  0.07853214  0.25533739  1
  Co  Co6  1  0.25899575  0.07863225  0.46992003  1
  Sb  Sb7  1  0.75897237  0.07852289  0.72059322  1
  N  N8  1  0.25885322  0.57838888  0.00340458  1
