# generated using pymatgen
data_FeCuP2Pd4Ru
_symmetry_space_group_name_H-M   'P 1'
_cell_length_a   4.11953621
_cell_length_b   4.12235516
_cell_length_c   9.44083127
_cell_angle_alpha   90.04482781
_cell_angle_beta   102.56301027
_cell_angle_gamma   120.00757718
_symmetry_Int_Tables_number   1
_chemical_formula_structural   FeCuP2Pd4Ru
_chemical_formula_sum   'Fe1 Cu1 P2 Pd4 Ru1'
_cell_volume   134.36836683
_cell_formula_units_Z   1
loop_
 _symmetry_equiv_pos_site_id
 _symmetry_equiv_pos_as_xyz
  1  'x, y, z'
loop_
 _atom_site_type_symbol
 _atom_site_label
 _atom_site_symmetry_multiplicity
 _atom_site_fract_x
 _atom_site_fract_y
 _atom_site_fract_z
 _atom_site_occupancy
  Fe  Fe0  1  0.76265017  0.43504186  0.15162050  1
  Cu  Cu1  1  0.93453730  0.02142090  0.90969398  1
  P  P2  1  0.39237029  0.25017819  0.59574245  1
  P  P3  1  0.48784074  0.79721188  0.23964628  1
  Pd  Pd4  1  0.10892913  0.60853024  0.67031694  1
  Pd  Pd5  1  0.21530070  0.16125283  0.32990206  1
  Pd  Pd6  1  0.32301918  0.71573532  -0.00740323  1
  Pd  Pd7  1  0.66549248  0.88664522  0.50467070  1
  Ru  Ru8  1  0.55318757  0.33070397  0.83702055  1
