# generated using pymatgen
data_Gd2Mn2Ge3
_symmetry_space_group_name_H-M   'P 1'
_cell_length_a   4.48864086
_cell_length_b   4.51133615
_cell_length_c   7.32557708
_cell_angle_alpha   89.83981340
_cell_angle_beta   107.99430055
_cell_angle_gamma   90.00532697
_symmetry_Int_Tables_number   1
_chemical_formula_structural   Gd2Mn2Ge3
_chemical_formula_sum   'Gd2 Mn2 Ge3'
_cell_volume   141.08485950
_cell_formula_units_Z   1
loop_
 _symmetry_equiv_pos_site_id
 _symmetry_equiv_pos_as_xyz
  1  'x, y, z'
loop_
 _atom_site_type_symbol
 _atom_site_label
 _atom_site_symmetry_multiplicity
 _atom_site_fract_x
 _atom_site_fract_y
 _atom_site_fract_z
 _atom_site_occupancy
  Gd  Gd0  1  0.17353632  0.68815376  0.76460858  1
  Gd  Gd1  1  0.46515318  0.68893057  0.35165302  1
  Mn  Mn2  1  0.97614576  0.18860831  0.37448236  1
  Mn  Mn3  1  0.78160542  0.18373493  0.97634040  1
  Ge  Ge4  1  0.33062696  0.18888959  0.07447027  1
  Ge  Ge5  1  0.83140248  0.68393055  0.08358511  1
  Ge  Ge6  1  0.60295236  0.18757931  0.62703029  1
