# generated using pymatgen
data_Gd2Sb
_symmetry_space_group_name_H-M   'P 1'
_cell_length_a   5.15892139
_cell_length_b   5.16079790
_cell_length_c   5.15567683
_cell_angle_alpha   60.04646937
_cell_angle_beta   60.05450078
_cell_angle_gamma   60.07593710
_symmetry_Int_Tables_number   1
_chemical_formula_structural   Gd2Sb
_chemical_formula_sum   'Gd2 Sb1'
_cell_volume   97.19108452
_cell_formula_units_Z   1
loop_
 _symmetry_equiv_pos_site_id
 _symmetry_equiv_pos_as_xyz
  1  'x, y, z'
loop_
 _atom_site_type_symbol
 _atom_site_label
 _atom_site_symmetry_multiplicity
 _atom_site_fract_x
 _atom_site_fract_y
 _atom_site_fract_z
 _atom_site_occupancy
  Gd  Gd0  1  0.36959174  0.94162213  0.29465778  1
  Gd  Gd1  1  0.86917395  0.44054837  0.79442910  1
  Sb  Sb2  1  0.11932981  0.69099128  0.04460803  1
