# generated using pymatgen
data_GdCoBC
_symmetry_space_group_name_H-M   'P 1'
_cell_length_a   3.78610684
_cell_length_b   3.72465792
_cell_length_c   3.81434135
_cell_angle_alpha   103.44625844
_cell_angle_beta   90.01092911
_cell_angle_gamma   89.99933622
_symmetry_Int_Tables_number   1
_chemical_formula_structural   GdCoBC
_chemical_formula_sum   'Gd1 Co1 B1 C1'
_cell_volume   52.31520312
_cell_formula_units_Z   1
loop_
 _symmetry_equiv_pos_site_id
 _symmetry_equiv_pos_as_xyz
  1  'x, y, z'
loop_
 _atom_site_type_symbol
 _atom_site_label
 _atom_site_symmetry_multiplicity
 _atom_site_fract_x
 _atom_site_fract_y
 _atom_site_fract_z
 _atom_site_occupancy
  Gd  Gd0  1  0.98907011  0.53530369  0.83994008  1
  Co  Co1  1  0.48906653  0.15808495  0.22549699  1
  B  B2  1  0.48904445  0.69689499  0.40231515  1
  C  C3  1  0.48905027  0.01795632  0.71886147  1
