# generated using pymatgen
data_GeBRu3
_symmetry_space_group_name_H-M   'P 1'
_cell_length_a   4.05957310
_cell_length_b   4.05541193
_cell_length_c   4.05961792
_cell_angle_alpha   90.24239978
_cell_angle_beta   90.18791329
_cell_angle_gamma   89.89984249
_symmetry_Int_Tables_number   1
_chemical_formula_structural   GeBRu3
_chemical_formula_sum   'Ge1 B1 Ru3'
_cell_volume   66.83341086
_cell_formula_units_Z   1
loop_
 _symmetry_equiv_pos_site_id
 _symmetry_equiv_pos_as_xyz
  1  'x, y, z'
loop_
 _atom_site_type_symbol
 _atom_site_label
 _atom_site_symmetry_multiplicity
 _atom_site_fract_x
 _atom_site_fract_y
 _atom_site_fract_z
 _atom_site_occupancy
  Ge  Ge0  1  0.01214988  0.83375596  0.94037005  1
  B  B1  1  0.51253981  0.33394769  0.44010296  1
  Ru  Ru2  1  0.51131418  0.33375542  0.94041094  1
  Ru  Ru3  1  0.51142503  0.83397578  0.44061379  1
  Ru  Ru4  1  0.01210586  0.33397403  0.44107002  1
