# generated using pymatgen
data_H2ICl2
_symmetry_space_group_name_H-M   'P 1'
_cell_length_a   3.47210100
_cell_length_b   3.47878076
_cell_length_c   10.58887912
_cell_angle_alpha   99.47431385
_cell_angle_beta   80.64939100
_cell_angle_gamma   94.82683293
_symmetry_Int_Tables_number   1
_chemical_formula_structural   H2ICl2
_chemical_formula_sum   'H2 I1 Cl2'
_cell_volume   124.26209301
_cell_formula_units_Z   1
loop_
 _symmetry_equiv_pos_site_id
 _symmetry_equiv_pos_as_xyz
  1  'x, y, z'
loop_
 _atom_site_type_symbol
 _atom_site_label
 _atom_site_symmetry_multiplicity
 _atom_site_fract_x
 _atom_site_fract_y
 _atom_site_fract_z
 _atom_site_occupancy
  H  H0  1  0.64086018  0.11072198  0.31162469  1
  H  H1  1  0.09632856  0.65922696  0.41001455  1
  I  I2  1  0.18620984  0.19868475  0.86259077  1
  Cl  Cl3  1  0.84606507  0.49173984  0.49325891  1
  Cl  Cl4  1  0.47075797  0.85639457  0.22995643  1
