# generated using pymatgen
data_H2O2
_symmetry_space_group_name_H-M   'P 1'
_cell_length_a   3.15779536
_cell_length_b   3.98703797
_cell_length_c   3.57306704
_cell_angle_alpha   114.04707293
_cell_angle_beta   64.42430352
_cell_angle_gamma   124.40231533
_symmetry_Int_Tables_number   1
_chemical_formula_structural   H2O2
_chemical_formula_sum   'H2 O2'
_cell_volume   32.66179059
_cell_formula_units_Z   1
loop_
 _symmetry_equiv_pos_site_id
 _symmetry_equiv_pos_as_xyz
  1  'x, y, z'
loop_
 _atom_site_type_symbol
 _atom_site_label
 _atom_site_symmetry_multiplicity
 _atom_site_fract_x
 _atom_site_fract_y
 _atom_site_fract_z
 _atom_site_occupancy
  H  H0  1  0.57505846  0.12516145  0.31622494  1
  H  H1  1  0.72163144  0.68157641  0.27411467  1
  O  O2  1  0.33807774  0.86803577  0.44453434  1
  O  O3  1  -0.01846921  0.56480333  0.16811803  1
