# generated using pymatgen
data_Hf4AlGe3Ru2Pt
_symmetry_space_group_name_H-M   'P 1'
_cell_length_a   4.12676115
_cell_length_b   4.11938548
_cell_length_c   14.26296157
_cell_angle_alpha   90.04138121
_cell_angle_beta   90.04134577
_cell_angle_gamma   120.09659758
_symmetry_Int_Tables_number   1
_chemical_formula_structural   Hf4AlGe3Ru2Pt
_chemical_formula_sum   'Hf4 Al1 Ge3 Ru2 Pt1'
_cell_volume   209.77711078
_cell_formula_units_Z   1
loop_
 _symmetry_equiv_pos_site_id
 _symmetry_equiv_pos_as_xyz
  1  'x, y, z'
loop_
 _atom_site_type_symbol
 _atom_site_label
 _atom_site_symmetry_multiplicity
 _atom_site_fract_x
 _atom_site_fract_y
 _atom_site_fract_z
 _atom_site_occupancy
  Hf  Hf0  1  0.23937946  0.64245237  0.27306716  1
  Hf  Hf1  1  0.90714542  0.97460288  0.74564585  1
  Hf  Hf2  1  0.90880728  0.97801574  0.98257328  1
  Hf  Hf3  1  0.57364507  0.30919381  0.55502490  1
  Al  Al4  1  0.90696969  0.97732136  0.42612402  1
  Ge  Ge5  1  0.24306687  0.64665337  0.08397539  1
  Ge  Ge6  1  0.57464287  0.30946130  0.87539434  1
  Ge  Ge7  1  0.24046276  0.64201238  0.64937468  1
  Ru  Ru8  1  0.57648652  0.31384863  0.14826255  1
  Ru  Ru9  1  0.24084348  0.64168575  0.83675838  1
  Pt  Pt10  1  0.57304418  0.30966625  0.36102956  1
