# generated using pymatgen
data_HfZr4Co3P4
_symmetry_space_group_name_H-M   'P 1'
_cell_length_a   3.61664358
_cell_length_b   5.23423182
_cell_length_c   9.65933922
_cell_angle_alpha   91.91116308
_cell_angle_beta   90.00003092
_cell_angle_gamma   89.99958267
_symmetry_Int_Tables_number   1
_chemical_formula_structural   HfZr4Co3P4
_chemical_formula_sum   'Hf1 Zr4 Co3 P4'
_cell_volume   182.75296596
_cell_formula_units_Z   1
loop_
 _symmetry_equiv_pos_site_id
 _symmetry_equiv_pos_as_xyz
  1  'x, y, z'
loop_
 _atom_site_type_symbol
 _atom_site_label
 _atom_site_symmetry_multiplicity
 _atom_site_fract_x
 _atom_site_fract_y
 _atom_site_fract_z
 _atom_site_occupancy
  Hf  Hf0  1  0.51962147  0.53935609  0.21741501  1
  Zr  Zr1  1  0.01963070  0.77672295  0.43424991  1
  Zr  Zr2  1  0.01962388  0.04143768  0.12821563  1
  Zr  Zr3  1  0.51964171  0.01217947  0.65058084  1
  Zr  Zr4  1  0.01965381  0.51133856  0.74150091  1
  Co  Co5  1  0.51952565  0.77645364  0.93518124  1
  Co  Co6  1  0.01961643  0.27813053  0.43140589  1
  Co  Co7  1  0.51976782  0.27648383  0.93543153  1
  P  P8  1  0.51963663  0.48534663  0.53900386  1
  P  P9  1  0.01964542  0.01928574  0.84823230  1
  P  P10  1  0.01962689  0.53397660  0.02185646  1
  P  P11  1  0.51962485  0.06633526  0.32878783  1
