# generated using pymatgen
data_Hg6AuCl5
_symmetry_space_group_name_H-M   'P 1'
_cell_length_a   4.12757511
_cell_length_b   6.86613390
_cell_length_c   15.85131320
_cell_angle_alpha   106.02057959
_cell_angle_beta   107.95050644
_cell_angle_gamma   88.92792663
_symmetry_Int_Tables_number   1
_chemical_formula_structural   Hg6AuCl5
_chemical_formula_sum   'Hg6 Au1 Cl5'
_cell_volume   409.68602776
_cell_formula_units_Z   1
loop_
 _symmetry_equiv_pos_site_id
 _symmetry_equiv_pos_as_xyz
  1  'x, y, z'
loop_
 _atom_site_type_symbol
 _atom_site_label
 _atom_site_symmetry_multiplicity
 _atom_site_fract_x
 _atom_site_fract_y
 _atom_site_fract_z
 _atom_site_occupancy
  Hg  Hg0  1  -0.03954505  0.25198732  0.17667027  1
  Hg  Hg1  1  0.55858426  0.86531551  0.32248748  1
  Hg  Hg2  1  -0.07632276  0.20215011  0.87076576  1
  Hg  Hg3  1  0.02128977  0.46592576  0.51002202  1
  Hg  Hg4  1  0.19668576  0.67535115  0.77551261  1
  Hg  Hg5  1  0.44774376  0.20184599  0.01788882  1
  Au  Au6  1  0.62223716  0.57695144  0.64218700  1
  Cl  Cl7  1  0.38214111  0.18491634  0.74849401  1
  Cl  Cl8  1  0.06293748  0.92800268  0.44662940  1
  Cl  Cl9  1  0.50645979  0.30986740  0.31725870  1
  Cl  Cl10  1  0.07178544  0.76424813  0.19239468  1
  Cl  Cl11  1  0.66951703  0.78495430  0.92626588  1
