# generated using pymatgen
data_Ho5Si5Pt4
_symmetry_space_group_name_H-M   'P 1'
_cell_length_a   4.06095519
_cell_length_b   8.63918477
_cell_length_c   8.15302700
_cell_angle_alpha   100.63637236
_cell_angle_beta   90.00683920
_cell_angle_gamma   89.99863879
_symmetry_Int_Tables_number   1
_chemical_formula_structural   Ho5Si5Pt4
_chemical_formula_sum   'Ho5 Si5 Pt4'
_cell_volume   281.12088091
_cell_formula_units_Z   1
loop_
 _symmetry_equiv_pos_site_id
 _symmetry_equiv_pos_as_xyz
  1  'x, y, z'
loop_
 _atom_site_type_symbol
 _atom_site_label
 _atom_site_symmetry_multiplicity
 _atom_site_fract_x
 _atom_site_fract_y
 _atom_site_fract_z
 _atom_site_occupancy
  Ho  Ho0  1  0.08283793  0.73811223  0.68454831  1
  Ho  Ho1  1  0.08235226  0.81790171  0.19463012  1
  Ho  Ho2  1  0.08246148  0.40684763  0.98438688  1
  Ho  Ho3  1  0.58243024  0.19897360  0.28402309  1
  Ho  Ho4  1  0.58255935  0.13281423  0.74400599  1
  Si  Si5  1  0.58251336  0.91720937  0.96161168  1
  Si  Si6  1  0.58269933  0.46256966  0.71032386  1
  Si  Si7  1  0.08261914  0.05001285  0.48633522  1
  Si  Si8  1  0.08218338  0.46490536  0.35047631  1
  Si  Si9  1  0.58227389  0.59832493  0.28273110  1
  Pt  Pt10  1  0.58242987  0.64062174  0.97657700  1
  Pt  Pt11  1  0.08266675  0.34002071  0.58749387  1
  Pt  Pt12  1  0.58257764  0.87413300  0.46510059  1
  Pt  Pt13  1  0.08237196  0.07384496  0.00158790  1
