# generated using pymatgen
data_HoAl3Fe2
_symmetry_space_group_name_H-M   'P 1'
_cell_length_a   4.18146808
_cell_length_b   5.21943773
_cell_length_c   9.54535539
_cell_angle_alpha   108.56033080
_cell_angle_beta   90.00162963
_cell_angle_gamma   90.00011831
_symmetry_Int_Tables_number   1
_chemical_formula_structural   HoAl3Fe2
_chemical_formula_sum   'Ho2 Al6 Fe4'
_cell_volume   197.49127529
_cell_formula_units_Z   2
loop_
 _symmetry_equiv_pos_site_id
 _symmetry_equiv_pos_as_xyz
  1  'x, y, z'
loop_
 _atom_site_type_symbol
 _atom_site_label
 _atom_site_symmetry_multiplicity
 _atom_site_fract_x
 _atom_site_fract_y
 _atom_site_fract_z
 _atom_site_occupancy
  Ho  Ho0  1  0.52812012  0.64017673  0.80159446  1
  Ho  Ho1  1  0.02811416  0.21075828  0.19920576  1
  Al  Al2  1  0.02811565  0.79316595  0.32453966  1
  Al  Al3  1  0.52809533  0.26435750  0.98260530  1
  Al  Al4  1  0.02812910  0.15663525  0.81585271  1
  Al  Al5  1  0.52811371  0.77849211  0.14780648  1
  Al  Al6  1  0.52811011  0.55184318  0.45562157  1
  Al  Al7  1  0.02814472  0.28099652  0.55152226  1
  Fe  Fe8  1  0.02812181  0.79351307  0.57725296  1
  Fe  Fe9  1  0.02804537  0.55950197  0.03836897  1
  Fe  Fe10  1  0.52813700  0.03873210  0.66261973  1
  Fe  Fe11  1  0.52812927  0.04425176  0.42145256  1
