# generated using pymatgen
data_HoHg3
_symmetry_space_group_name_H-M   'P 1'
_cell_length_a   5.10603650
_cell_length_b   5.10509936
_cell_length_c   5.10655737
_cell_angle_alpha   60.16765860
_cell_angle_beta   60.11778423
_cell_angle_gamma   60.16127653
_symmetry_Int_Tables_number   1
_chemical_formula_structural   HoHg3
_chemical_formula_sum   'Ho1 Hg3'
_cell_volume   94.44163647
_cell_formula_units_Z   1
loop_
 _symmetry_equiv_pos_site_id
 _symmetry_equiv_pos_as_xyz
  1  'x, y, z'
loop_
 _atom_site_type_symbol
 _atom_site_label
 _atom_site_symmetry_multiplicity
 _atom_site_fract_x
 _atom_site_fract_y
 _atom_site_fract_z
 _atom_site_occupancy
  Ho  Ho0  1  0.37498001  0.66416732  0.55829775  1
  Hg  Hg1  1  0.62461349  0.91352687  0.80782945  1
  Hg  Hg2  1  0.12483807  0.41281754  0.30789624  1
  Hg  Hg3  1  0.87531654  0.16255516  0.05778021  1
