# generated using pymatgen
data_HoLuS2
_symmetry_space_group_name_H-M   'P 1'
_cell_length_a   3.84237410
_cell_length_b   3.83918448
_cell_length_c   6.66775929
_cell_angle_alpha   73.27342049
_cell_angle_beta   73.23849056
_cell_angle_gamma   59.86847975
_symmetry_Int_Tables_number   1
_chemical_formula_structural   HoLuS2
_chemical_formula_sum   'Ho1 Lu1 S2'
_cell_volume   80.23061301
_cell_formula_units_Z   1
loop_
 _symmetry_equiv_pos_site_id
 _symmetry_equiv_pos_as_xyz
  1  'x, y, z'
loop_
 _atom_site_type_symbol
 _atom_site_label
 _atom_site_symmetry_multiplicity
 _atom_site_fract_x
 _atom_site_fract_y
 _atom_site_fract_z
 _atom_site_occupancy
  Ho  Ho0  1  0.68084516  0.46398808  0.13530587  1
  Lu  Lu1  1  0.18173633  0.96408856  0.63425161  1
  S  S2  1  0.43368786  0.21682611  0.87730647  1
  S  S3  1  0.92862987  0.71135632  0.39222339  1
