# generated using pymatgen
data_HoTl6Cl7
_symmetry_space_group_name_H-M   'P 1'
_cell_length_a   8.89253912
_cell_length_b   7.59495783
_cell_length_c   8.10368071
_cell_angle_alpha   120.04615945
_cell_angle_beta   92.84713524
_cell_angle_gamma   100.65765424
_symmetry_Int_Tables_number   1
_chemical_formula_structural   HoTl6Cl7
_chemical_formula_sum   'Ho1 Tl6 Cl7'
_cell_volume   459.03389756
_cell_formula_units_Z   1
loop_
 _symmetry_equiv_pos_site_id
 _symmetry_equiv_pos_as_xyz
  1  'x, y, z'
loop_
 _atom_site_type_symbol
 _atom_site_label
 _atom_site_symmetry_multiplicity
 _atom_site_fract_x
 _atom_site_fract_y
 _atom_site_fract_z
 _atom_site_occupancy
  Ho  Ho0  1  0.35730724  0.86534182  0.92106742  1
  Tl  Tl1  1  0.90665255  0.11066435  0.09745742  1
  Tl  Tl2  1  0.41058310  0.22220247  0.60813497  1
  Tl  Tl3  1  0.80869574  0.62374730  0.74559081  1
  Tl  Tl4  1  0.30184806  0.50825070  0.23391540  1
  Tl  Tl5  1  0.91198036  0.62938490  0.34597289  1
  Tl  Tl6  1  0.79980485  0.09256745  0.49286379  1
  Cl  Cl7  1  0.52066130  0.84010944  0.64724430  1
  Cl  Cl8  1  0.19321863  0.89003806  0.19413064  1
  Cl  Cl9  1  0.53216622  0.67173148  0.01404648  1
  Cl  Cl10  1  0.85433992  0.36358938  0.91822557  1
  Cl  Cl11  1  0.18170428  0.05811278  0.82726966  1
  Cl  Cl12  1  0.17591983  0.49961346  0.65584327  1
  Cl  Cl13  1  0.53849886  0.23100163  0.18636419  1
