# generated using pymatgen
data_HoZnCu
_symmetry_space_group_name_H-M   'P 1'
_cell_length_a   4.46168202
_cell_length_b   4.46063587
_cell_length_c   4.45344910
_cell_angle_alpha   59.82274345
_cell_angle_beta   59.81745991
_cell_angle_gamma   59.76412385
_symmetry_Int_Tables_number   1
_chemical_formula_structural   HoZnCu
_chemical_formula_sum   'Ho1 Zn1 Cu1'
_cell_volume   62.38995116
_cell_formula_units_Z   1
loop_
 _symmetry_equiv_pos_site_id
 _symmetry_equiv_pos_as_xyz
  1  'x, y, z'
loop_
 _atom_site_type_symbol
 _atom_site_label
 _atom_site_symmetry_multiplicity
 _atom_site_fract_x
 _atom_site_fract_y
 _atom_site_fract_z
 _atom_site_occupancy
  Ho  Ho0  1  0.14000856  0.49330190  0.32132453  1
  Zn  Zn1  1  0.64089496  0.99270495  0.82068602  1
  Cu  Cu2  1  0.39008662  0.74296704  0.57079452  1
