# generated using pymatgen
data_In2CuAgTe4
_symmetry_space_group_name_H-M   'P 1'
_cell_length_a   4.53378849
_cell_length_b   7.71090964
_cell_length_c   7.86707828
_cell_angle_alpha   88.62974297
_cell_angle_beta   89.94059404
_cell_angle_gamma   89.98925813
_symmetry_Int_Tables_number   1
_chemical_formula_structural   In2CuAgTe4
_chemical_formula_sum   'In2 Cu1 Ag1 Te4'
_cell_volume   274.95137282
_cell_formula_units_Z   1
loop_
 _symmetry_equiv_pos_site_id
 _symmetry_equiv_pos_as_xyz
  1  'x, y, z'
loop_
 _atom_site_type_symbol
 _atom_site_label
 _atom_site_symmetry_multiplicity
 _atom_site_fract_x
 _atom_site_fract_y
 _atom_site_fract_z
 _atom_site_occupancy
  In  In0  1  0.85420817  0.10918964  0.08403914  1
  In  In1  1  0.35605619  0.85063587  0.58937231  1
  Cu  Cu2  1  0.35176366  0.55819159  0.98935558  1
  Ag  Ag3  1  0.85471833  0.42074046  0.48079507  1
  Te  Te4  1  0.35429653  0.91039826  0.96637415  1
  Te  Te5  1  0.85618326  0.04271109  0.46040490  1
  Te  Te6  1  0.35433602  0.49833581  0.66378425  1
  Te  Te7  1  0.85199383  0.46988103  0.12724167  1
