# generated using pymatgen
data_In2Rh
_symmetry_space_group_name_H-M   'P 1'
_cell_length_a   5.88588975
_cell_length_b   6.46489727
_cell_length_c   6.46320077
_cell_angle_alpha   90.06277724
_cell_angle_beta   89.98146104
_cell_angle_gamma   90.00873856
_symmetry_Int_Tables_number   1
_chemical_formula_structural   In2Rh
_chemical_formula_sum   'In8 Rh4'
_cell_volume   245.93543600
_cell_formula_units_Z   4
loop_
 _symmetry_equiv_pos_site_id
 _symmetry_equiv_pos_as_xyz
  1  'x, y, z'
loop_
 _atom_site_type_symbol
 _atom_site_label
 _atom_site_symmetry_multiplicity
 _atom_site_fract_x
 _atom_site_fract_y
 _atom_site_fract_z
 _atom_site_occupancy
  In  In0  1  0.16279176  0.71164373  0.35938021  1
  In  In1  1  0.66285055  0.57098085  0.21899090  1
  In  In2  1  0.16285009  0.07173627  0.71971429  1
  In  In3  1  0.66284502  0.07165579  0.35964024  1
  In  In4  1  0.66274205  0.71172428  0.71935661  1
  In  In5  1  0.16278518  0.21141752  0.21961486  1
  In  In6  1  0.16289805  0.57176846  0.85954762  1
  In  In7  1  0.66286831  0.21213100  0.85988467  1
  Rh  Rh8  1  0.91282606  0.89162526  0.03960058  1
  Rh  Rh9  1  0.41259816  0.89163998  0.03960777  1
  Rh  Rh10  1  0.41307796  0.39185791  0.53960512  1
  Rh  Rh11  1  0.91270056  0.39172345  0.53965239  1
