# generated using pymatgen
data_In3Ge2N
_symmetry_space_group_name_H-M   'P 1'
_cell_length_a   3.70081922
_cell_length_b   3.57371313
_cell_length_c   9.89809077
_cell_angle_alpha   90.05675475
_cell_angle_beta   89.93160848
_cell_angle_gamma   89.99691235
_symmetry_Int_Tables_number   1
_chemical_formula_structural   In3Ge2N
_chemical_formula_sum   'In3 Ge2 N1'
_cell_volume   130.90868739
_cell_formula_units_Z   1
loop_
 _symmetry_equiv_pos_site_id
 _symmetry_equiv_pos_as_xyz
  1  'x, y, z'
loop_
 _atom_site_type_symbol
 _atom_site_label
 _atom_site_symmetry_multiplicity
 _atom_site_fract_x
 _atom_site_fract_y
 _atom_site_fract_z
 _atom_site_occupancy
  In  In0  1  0.84143799  0.18376665  0.35918115  1
  In  In1  1  0.34475963  0.68481847  0.15700843  1
  In  In2  1  0.33845899  0.68403502  0.61777603  1
  Ge  Ge3  1  0.34085088  0.18746765  0.84460982  1
  Ge  Ge4  1  0.84157577  0.68886526  0.92566524  1
  N  N5  1  0.83898216  0.68452256  0.49636210  1
