# generated using pymatgen
data_InAgPd2
_symmetry_space_group_name_H-M   'P 1'
_cell_length_a   4.58863281
_cell_length_b   4.59278766
_cell_length_c   4.59190399
_cell_angle_alpha   60.04250901
_cell_angle_beta   60.14685957
_cell_angle_gamma   60.12215174
_symmetry_Int_Tables_number   1
_chemical_formula_structural   InAgPd2
_chemical_formula_sum   'In1 Ag1 Pd2'
_cell_volume   68.58944429
_cell_formula_units_Z   1
loop_
 _symmetry_equiv_pos_site_id
 _symmetry_equiv_pos_as_xyz
  1  'x, y, z'
loop_
 _atom_site_type_symbol
 _atom_site_label
 _atom_site_symmetry_multiplicity
 _atom_site_fract_x
 _atom_site_fract_y
 _atom_site_fract_z
 _atom_site_occupancy
  In  In0  1  0.60040342  0.38189748  0.49690830  1
  Ag  Ag1  1  0.10059619  0.88180801  0.99703119  1
  Pd  Pd2  1  0.85041320  0.63188278  0.74705990  1
  Pd  Pd3  1  0.35058436  0.13187715  0.24663417  1
