# generated using pymatgen
data_InNiGeSeI
_symmetry_space_group_name_H-M   'P 1'
_cell_length_a   3.82095054
_cell_length_b   3.82078212
_cell_length_c   10.31646003
_cell_angle_alpha   79.47029707
_cell_angle_beta   79.46448417
_cell_angle_gamma   60.02081160
_symmetry_Int_Tables_number   1
_chemical_formula_structural   InNiGeSeI
_chemical_formula_sum   'In1 Ni1 Ge1 Se1 I1'
_cell_volume   127.51974783
_cell_formula_units_Z   1
loop_
 _symmetry_equiv_pos_site_id
 _symmetry_equiv_pos_as_xyz
  1  'x, y, z'
loop_
 _atom_site_type_symbol
 _atom_site_label
 _atom_site_symmetry_multiplicity
 _atom_site_fract_x
 _atom_site_fract_y
 _atom_site_fract_z
 _atom_site_occupancy
  In  In0  1  0.22970535  0.89680045  0.76125981  1
  Ni  Ni1  1  0.84620147  0.51346082  0.91212428  1
  Ge  Ge2  1  0.63810622  0.30549936  0.52798280  1
  Se  Se3  1  0.01753820  0.68500862  0.38912349  1
  I  I4  1  0.47161475  0.13872103  0.03760014  1
