# generated using pymatgen
data_K2AgBiF7
_symmetry_space_group_name_H-M   'P 1'
_cell_length_a   6.22250801
_cell_length_b   6.75275472
_cell_length_c   6.77605868
_cell_angle_alpha   54.91592825
_cell_angle_beta   63.18083029
_cell_angle_gamma   62.16424812
_symmetry_Int_Tables_number   1
_chemical_formula_structural   K2AgBiF7
_chemical_formula_sum   'K2 Ag1 Bi1 F7'
_cell_volume   199.35083409
_cell_formula_units_Z   1
loop_
 _symmetry_equiv_pos_site_id
 _symmetry_equiv_pos_as_xyz
  1  'x, y, z'
loop_
 _atom_site_type_symbol
 _atom_site_label
 _atom_site_symmetry_multiplicity
 _atom_site_fract_x
 _atom_site_fract_y
 _atom_site_fract_z
 _atom_site_occupancy
  K  K0  1  0.23317070  0.90488632  0.22173513  1
  K  K1  1  0.75556393  0.42050839  0.70750231  1
  Ag  Ag2  1  0.94925885  0.70472972  0.01626979  1
  Bi  Bi3  1  0.49208105  0.15967482  0.49190416  1
  F  F4  1  0.78902220  0.85913371  0.70010284  1
  F  F5  1  0.48939256  0.85964666  0.45416434  1
  F  F6  1  0.15962677  0.98025903  0.80471337  1
  F  F7  1  0.37857985  0.27871969  0.78737384  1
  F  F8  1  0.68040652  0.48865838  0.28867226  1
  F  F9  1  0.78581119  0.14939588  0.15683197  1
  F  F10  1  0.17905746  0.47566263  0.29494488  1
