# generated using pymatgen
data_KPdF2
_symmetry_space_group_name_H-M   'P 1'
_cell_length_a   4.19344907
_cell_length_b   5.97167151
_cell_length_c   9.44088921
_cell_angle_alpha   82.19255087
_cell_angle_beta   67.60794770
_cell_angle_gamma   90.98825870
_symmetry_Int_Tables_number   1
_chemical_formula_structural   KPdF2
_chemical_formula_sum   'K3 Pd3 F6'
_cell_volume   215.95014390
_cell_formula_units_Z   3
loop_
 _symmetry_equiv_pos_site_id
 _symmetry_equiv_pos_as_xyz
  1  'x, y, z'
loop_
 _atom_site_type_symbol
 _atom_site_label
 _atom_site_symmetry_multiplicity
 _atom_site_fract_x
 _atom_site_fract_y
 _atom_site_fract_z
 _atom_site_occupancy
  K  K0  1  0.09917009  0.43699107  0.62623314  1
  K  K1  1  0.78391495  0.58874859  -0.01287542  1
  K  K2  1  0.50073661  0.05389726  0.30861504  1
  Pd  Pd3  1  0.31512743  0.08570444  0.93201615  1
  Pd  Pd4  1  0.55718499  0.91006953  0.68262442  1
  Pd  Pd5  1  0.00283849  0.55884964  0.29070225  1
  F  F6  1  0.87060703  0.78901476  0.45153638  1
  F  F7  1  0.45354525  0.58857398  0.80008149  1
  F  F8  1  0.49803885  0.55738872  0.29573686  1
  F  F9  1  0.80339045  0.09898359  -0.05314090  1
  F  F10  1  0.65411516  0.21719247  0.54879540  1
  F  F11  1  0.13379809  0.30156783  0.14445336  1
