# generated using pymatgen
data_La2I4Br
_symmetry_space_group_name_H-M   'P 1'
_cell_length_a   5.11235558
_cell_length_b   5.11746643
_cell_length_c   14.48529357
_cell_angle_alpha   90.00013760
_cell_angle_beta   90.08754931
_cell_angle_gamma   120.01890631
_symmetry_Int_Tables_number   1
_chemical_formula_structural   La2I4Br
_chemical_formula_sum   'La2 I4 Br1'
_cell_volume   328.13347690
_cell_formula_units_Z   1
loop_
 _symmetry_equiv_pos_site_id
 _symmetry_equiv_pos_as_xyz
  1  'x, y, z'
loop_
 _atom_site_type_symbol
 _atom_site_label
 _atom_site_symmetry_multiplicity
 _atom_site_fract_x
 _atom_site_fract_y
 _atom_site_fract_z
 _atom_site_occupancy
  La  La0  1  0.01044864  0.03915037  0.51572803  1
  La  La1  1  0.67558354  0.36999758  0.03206743  1
  I  I2  1  0.00961695  0.03687691  0.14787002  1
  I  I3  1  0.67792592  0.37288747  0.58382318  1
  I  I4  1  0.34294388  0.70587603  0.39069051  1
  I  I5  1  0.34218625  0.70356476  0.92275319  1
  Br  Br6  1  0.01065292  0.03970297  0.71154711  1
