# generated using pymatgen
data_La2ZnSn5
_symmetry_space_group_name_H-M   'P 1'
_cell_length_a   4.48687811
_cell_length_b   4.91156395
_cell_length_c   10.52571992
_cell_angle_alpha   90.00355718
_cell_angle_beta   87.29468808
_cell_angle_gamma   89.99490371
_symmetry_Int_Tables_number   1
_chemical_formula_structural   La2ZnSn5
_chemical_formula_sum   'La2 Zn1 Sn5'
_cell_volume   231.70296512
_cell_formula_units_Z   1
loop_
 _symmetry_equiv_pos_site_id
 _symmetry_equiv_pos_as_xyz
  1  'x, y, z'
loop_
 _atom_site_type_symbol
 _atom_site_label
 _atom_site_symmetry_multiplicity
 _atom_site_fract_x
 _atom_site_fract_y
 _atom_site_fract_z
 _atom_site_occupancy
  La  La0  1  0.51096886  0.02733551  0.95654369  1
  La  La1  1  0.56009691  0.52739442  0.58563826  1
  Zn  Zn2  1  0.03202428  0.02736597  0.45388507  1
  Sn  Sn3  1  0.57687962  0.02731217  0.28984645  1
  Sn  Sn4  1  0.82492614  0.52726741  0.11047088  1
  Sn  Sn5  1  0.07047087  0.52739208  0.84996247  1
  Sn  Sn6  1  0.15530939  0.52739042  0.33601446  1
  Sn  Sn7  1  0.02857524  0.02735609  0.70229873  1
