# generated using pymatgen
data_LaMgPd2
_symmetry_space_group_name_H-M   'P 1'
_cell_length_a   4.95974308
_cell_length_b   4.96143768
_cell_length_c   4.96077467
_cell_angle_alpha   59.91535096
_cell_angle_beta   59.87371897
_cell_angle_gamma   59.88112979
_symmetry_Int_Tables_number   1
_chemical_formula_structural   LaMgPd2
_chemical_formula_sum   'La1 Mg1 Pd2'
_cell_volume   86.10265221
_cell_formula_units_Z   1
loop_
 _symmetry_equiv_pos_site_id
 _symmetry_equiv_pos_as_xyz
  1  'x, y, z'
loop_
 _atom_site_type_symbol
 _atom_site_label
 _atom_site_symmetry_multiplicity
 _atom_site_fract_x
 _atom_site_fract_y
 _atom_site_fract_z
 _atom_site_occupancy
  La  La0  1  0.14828841  0.72816262  0.23473284  1
  Mg  Mg1  1  0.64747602  0.22786153  0.73446375  1
  Pd  Pd2  1  0.39772563  0.97914855  0.48400895  1
  Pd  Pd3  1  0.89921464  0.47858899  0.98507058  1
