# generated using pymatgen
data_LaNd2TiO7
_symmetry_space_group_name_H-M   'P 1'
_cell_length_a   3.90465878
_cell_length_b   5.60080048
_cell_length_c   7.33642232
_cell_angle_alpha   90.09018134
_cell_angle_beta   89.95542922
_cell_angle_gamma   89.97343852
_symmetry_Int_Tables_number   1
_chemical_formula_structural   LaNd2TiO7
_chemical_formula_sum   'La1 Nd2 Ti1 O7'
_cell_volume   160.44153092
_cell_formula_units_Z   1
loop_
 _symmetry_equiv_pos_site_id
 _symmetry_equiv_pos_as_xyz
  1  'x, y, z'
loop_
 _atom_site_type_symbol
 _atom_site_label
 _atom_site_symmetry_multiplicity
 _atom_site_fract_x
 _atom_site_fract_y
 _atom_site_fract_z
 _atom_site_occupancy
  La  La0  1  0.40310322  0.16129688  0.75853067  1
  Nd  Nd1  1  0.90417215  0.66054972  0.50436819  1
  Nd  Nd2  1  0.40537031  0.15955568  0.25879708  1
  Ti  Ti3  1  0.90415645  0.66117222  0.00784419  1
  O  O4  1  0.90539819  0.41570720  0.20219072  1
  O  O5  1  0.40357529  0.91484523  0.50511459  1
  O  O6  1  0.40477475  0.40562691  0.50463454  1
  O  O7  1  0.40444112  0.66307651  0.00545006  1
  O  O8  1  0.90371196  0.42153936  0.80515765  1
  O  O9  1  0.90505513  0.90597030  0.20396350  1
  O  O10  1  0.90333415  0.90238362  0.80606528  1
