# generated using pymatgen
data_Li2Au3O4F
_symmetry_space_group_name_H-M   'P 1'
_cell_length_a   3.71006243
_cell_length_b   3.81534940
_cell_length_c   12.37023712
_cell_angle_alpha   95.80626797
_cell_angle_beta   89.01986897
_cell_angle_gamma   129.09269605
_symmetry_Int_Tables_number   1
_chemical_formula_structural   Li2Au3O4F
_chemical_formula_sum   'Li2 Au3 O4 F1'
_cell_volume   134.95752501
_cell_formula_units_Z   1
loop_
 _symmetry_equiv_pos_site_id
 _symmetry_equiv_pos_as_xyz
  1  'x, y, z'
loop_
 _atom_site_type_symbol
 _atom_site_label
 _atom_site_symmetry_multiplicity
 _atom_site_fract_x
 _atom_site_fract_y
 _atom_site_fract_z
 _atom_site_occupancy
  Li  Li0  1  0.88743823  0.25950358  0.19268829  1
  Li  Li1  1  0.40448948  0.64533383  0.57722768  1
  Au  Au2  1  0.12734045  0.85523304  0.00503482  1
  Au  Au3  1  0.15652552  0.96111194  0.37923988  1
  Au  Au4  1  0.17933701  0.05574406  0.78375560  1
  O  O5  1  0.85282044  0.17754373  0.02605367  1
  O  O6  1  0.45329843  0.72831426  0.75141179  1
  O  O7  1  0.20684410  0.50337998  0.41116184  1
  O  O8  1  0.21096765  0.94010102  0.22014588  1
  F  F9  1  0.08774565  -0.01690984  0.55764324  1
