# generated using pymatgen
data_Li2CuO2
_symmetry_space_group_name_H-M   'P 1'
_cell_length_a   3.27689789
_cell_length_b   3.28662681
_cell_length_c   5.09248970
_cell_angle_alpha   89.99554544
_cell_angle_beta   90.16787294
_cell_angle_gamma   59.85039485
_symmetry_Int_Tables_number   1
_chemical_formula_structural   Li2CuO2
_chemical_formula_sum   'Li2 Cu1 O2'
_cell_volume   47.42581997
_cell_formula_units_Z   1
loop_
 _symmetry_equiv_pos_site_id
 _symmetry_equiv_pos_as_xyz
  1  'x, y, z'
loop_
 _atom_site_type_symbol
 _atom_site_label
 _atom_site_symmetry_multiplicity
 _atom_site_fract_x
 _atom_site_fract_y
 _atom_site_fract_z
 _atom_site_occupancy
  Li  Li0  1  0.87437579  0.07241040  0.85807949  1
  Li  Li1  1  0.53955564  0.73978858  0.58817174  1
  Cu  Cu2  1  0.20885484  0.40540841  0.19358939  1
  O  O3  1  0.87804498  0.07116359  0.25434555  1
  O  O4  1  0.20667201  0.40617903  0.76207936  1
