# generated using pymatgen
data_Li2PrY
_symmetry_space_group_name_H-M   'P 1'
_cell_length_a   5.35645382
_cell_length_b   5.35839290
_cell_length_c   5.35947523
_cell_angle_alpha   59.95356874
_cell_angle_beta   59.95449651
_cell_angle_gamma   59.98830922
_symmetry_Int_Tables_number   1
_chemical_formula_structural   Li2PrY
_chemical_formula_sum   'Li2 Pr1 Y1'
_cell_volume   108.68729044
_cell_formula_units_Z   1
loop_
 _symmetry_equiv_pos_site_id
 _symmetry_equiv_pos_as_xyz
  1  'x, y, z'
loop_
 _atom_site_type_symbol
 _atom_site_label
 _atom_site_symmetry_multiplicity
 _atom_site_fract_x
 _atom_site_fract_y
 _atom_site_fract_z
 _atom_site_occupancy
  Li  Li0  1  0.17500704  0.00362787  0.11212522  1
  Li  Li1  1  0.67476523  0.50385795  0.61176144  1
  Pr  Pr2  1  0.92530997  0.75477034  0.86165431  1
  Y  Y3  1  0.42494724  0.25425339  0.36053596  1
