# generated using pymatgen
data_LiErPt2
_symmetry_space_group_name_H-M   'P 1'
_cell_length_a   4.64714542
_cell_length_b   4.64506685
_cell_length_c   4.64989726
_cell_angle_alpha   60.02660371
_cell_angle_beta   59.99363141
_cell_angle_gamma   60.09392850
_symmetry_Int_Tables_number   1
_chemical_formula_structural   LiErPt2
_chemical_formula_sum   'Li1 Er1 Pt2'
_cell_volume   71.03630343
_cell_formula_units_Z   1
loop_
 _symmetry_equiv_pos_site_id
 _symmetry_equiv_pos_as_xyz
  1  'x, y, z'
loop_
 _atom_site_type_symbol
 _atom_site_label
 _atom_site_symmetry_multiplicity
 _atom_site_fract_x
 _atom_site_fract_y
 _atom_site_fract_z
 _atom_site_occupancy
  Li  Li0  1  0.04166738  0.01605195  0.35859039  1
  Er  Er1  1  0.54150926  0.51622552  0.85844349  1
  Pt  Pt2  1  0.29137859  0.26606045  0.60839101  1
  Pt  Pt3  1  0.79184216  0.76645089  0.10848744  1
