# generated using pymatgen
data_LiMg8Pb
_symmetry_space_group_name_H-M   'P 1'
_cell_length_a   3.19939807
_cell_length_b   4.56449561
_cell_length_c   16.99254122
_cell_angle_alpha   74.19927659
_cell_angle_beta   73.29245968
_cell_angle_gamma   89.99212553
_symmetry_Int_Tables_number   1
_chemical_formula_structural   LiMg8Pb
_chemical_formula_sum   'Li1 Mg8 Pb1'
_cell_volume   227.87274466
_cell_formula_units_Z   1
loop_
 _symmetry_equiv_pos_site_id
 _symmetry_equiv_pos_as_xyz
  1  'x, y, z'
loop_
 _atom_site_type_symbol
 _atom_site_label
 _atom_site_symmetry_multiplicity
 _atom_site_fract_x
 _atom_site_fract_y
 _atom_site_fract_z
 _atom_site_occupancy
  Li  Li0  1  0.30144613  0.48260090  0.77820228  1
  Mg  Mg1  1  0.58164309  0.88684478  0.87718362  1
  Mg  Mg2  1  0.18274545  0.68430511  0.07664151  1
  Mg  Mg3  1  0.37706680  0.28266650  0.47660965  1
  Mg  Mg4  1  0.76926674  0.48264495  0.27698020  1
  Mg  Mg5  1  0.89190362  0.28775789  0.97419545  1
  Mg  Mg6  1  0.05608175  0.88026047  0.37828361  1
  Mg  Mg7  1  0.48013020  0.08430897  0.17632244  1
  Mg  Mg8  1  0.70682786  0.68469821  0.57755478  1
  Pb  Pb9  1  0.01682686  0.07943200  0.68218718  1
