# generated using pymatgen
data_LiSiPt
_symmetry_space_group_name_H-M   'P 1'
_cell_length_a   4.05247094
_cell_length_b   4.05314656
_cell_length_c   4.05500322
_cell_angle_alpha   59.88136898
_cell_angle_beta   59.92644659
_cell_angle_gamma   59.95848711
_symmetry_Int_Tables_number   1
_chemical_formula_structural   LiSiPt
_chemical_formula_sum   'Li1 Si1 Pt1'
_cell_volume   47.01321310
_cell_formula_units_Z   1
loop_
 _symmetry_equiv_pos_site_id
 _symmetry_equiv_pos_as_xyz
  1  'x, y, z'
loop_
 _atom_site_type_symbol
 _atom_site_label
 _atom_site_symmetry_multiplicity
 _atom_site_fract_x
 _atom_site_fract_y
 _atom_site_fract_z
 _atom_site_occupancy
  Li  Li0  1  0.62006796  0.56229403  0.83175893  1
  Si  Si1  1  0.11952339  0.06160673  0.33126381  1
  Pt  Pt2  1  0.86962835  0.81133467  0.08109843  1
