# generated using pymatgen
data_Lu2Fe3Si5NiPb
_symmetry_space_group_name_H-M   'P 1'
_cell_length_a   3.89512535
_cell_length_b   3.89216255
_cell_length_c   14.98040895
_cell_angle_alpha   89.94414417
_cell_angle_beta   89.85289792
_cell_angle_gamma   119.98451296
_symmetry_Int_Tables_number   1
_chemical_formula_structural   Lu2Fe3Si5NiPb
_chemical_formula_sum   'Lu2 Fe3 Si5 Ni1 Pb1'
_cell_volume   196.71231808
_cell_formula_units_Z   1
loop_
 _symmetry_equiv_pos_site_id
 _symmetry_equiv_pos_as_xyz
  1  'x, y, z'
loop_
 _atom_site_type_symbol
 _atom_site_label
 _atom_site_symmetry_multiplicity
 _atom_site_fract_x
 _atom_site_fract_y
 _atom_site_fract_z
 _atom_site_occupancy
  Lu  Lu0  1  0.26808033  0.60489458  0.90039097  1
  Lu  Lu1  1  0.26436676  0.60233553  0.14981809  1
  Fe  Fe2  1  0.93730612  0.94017043  0.74108156  1
  Fe  Fe3  1  0.26212695  0.60050135  0.33363091  1
  Fe  Fe4  1  0.60614335  0.27496498  0.63544364  1
  Si  Si5  1  0.92915344  0.93422111  0.28358876  1
  Si  Si6  1  0.60360829  0.27314126  0.78445882  1
  Si  Si7  1  0.27195831  0.60763838  0.68430469  1
  Si  Si8  1  0.59945393  0.27041038  0.02296892  1
  Si  Si9  1  0.59501253  0.26713263  0.36320709  1
  Ni  Ni10  1  0.93293101  0.93667762  0.04255461  1
  Pb  Pb11  1  0.94093870  0.94257628  0.52075184  1
