# generated using pymatgen
data_LuRe2B9
_symmetry_space_group_name_H-M   'P 1'
_cell_length_a   3.39117482
_cell_length_b   5.89259697
_cell_length_c   5.35856273
_cell_angle_alpha   90.03026059
_cell_angle_beta   91.04631646
_cell_angle_gamma   89.99267921
_symmetry_Int_Tables_number   1
_chemical_formula_structural   LuRe2B9
_chemical_formula_sum   'Lu1 Re2 B9'
_cell_volume   107.06135929
_cell_formula_units_Z   1
loop_
 _symmetry_equiv_pos_site_id
 _symmetry_equiv_pos_as_xyz
  1  'x, y, z'
loop_
 _atom_site_type_symbol
 _atom_site_label
 _atom_site_symmetry_multiplicity
 _atom_site_fract_x
 _atom_site_fract_y
 _atom_site_fract_z
 _atom_site_occupancy
  Lu  Lu0  1  0.28239597  0.04830106  0.99373640  1
  Re  Re1  1  0.26599448  0.79638700  0.49607477  1
  Re  Re2  1  0.26591273  0.30239406  0.49633581  1
  B  B3  1  0.76015132  0.04950357  0.66109230  1
  B  B4  1  0.77250753  0.79067606  0.17878394  1
  B  B5  1  0.79822988  0.31547891  0.81495160  1
  B  B6  1  0.75294511  0.54935036  0.34208799  1
  B  B7  1  0.15387236  0.54983580  0.81152746  1
  B  B8  1  0.79712816  0.78305345  0.81324234  1
  B  B9  1  0.77247174  0.30790660  0.17778078  1
  B  B10  1  0.59274296  0.54969042  -0.01079013  1
  B  B11  1  0.76561508  0.04946052  0.33834728  1
