# generated using pymatgen
data_LuZnCuHg
_symmetry_space_group_name_H-M   'P 1'
_cell_length_a   4.70329240
_cell_length_b   4.70610264
_cell_length_c   4.71422237
_cell_angle_alpha   60.31945190
_cell_angle_beta   60.27071474
_cell_angle_gamma   60.15050508
_symmetry_Int_Tables_number   1
_chemical_formula_structural   LuZnCuHg
_chemical_formula_sum   'Lu1 Zn1 Cu1 Hg1'
_cell_volume   74.19538716
_cell_formula_units_Z   1
loop_
 _symmetry_equiv_pos_site_id
 _symmetry_equiv_pos_as_xyz
  1  'x, y, z'
loop_
 _atom_site_type_symbol
 _atom_site_label
 _atom_site_symmetry_multiplicity
 _atom_site_fract_x
 _atom_site_fract_y
 _atom_site_fract_z
 _atom_site_occupancy
  Lu  Lu0  1  0.38625401  0.60052414  0.02091488  1
  Zn  Zn1  1  0.88591277  0.10092526  0.52272204  1
  Cu  Cu2  1  0.13600191  0.35043598  0.77049121  1
  Hg  Hg3  1  0.63611077  0.85074843  0.27255954  1
