# generated using pymatgen
data_Mg2InHg
_symmetry_space_group_name_H-M   'P 1'
_cell_length_a   5.04696103
_cell_length_b   5.04607160
_cell_length_c   5.04150800
_cell_angle_alpha   59.87814371
_cell_angle_beta   59.86030508
_cell_angle_gamma   59.72357546
_symmetry_Int_Tables_number   1
_chemical_formula_structural   Mg2InHg
_chemical_formula_sum   'Mg2 In1 Hg1'
_cell_volume   90.41814644
_cell_formula_units_Z   1
loop_
 _symmetry_equiv_pos_site_id
 _symmetry_equiv_pos_as_xyz
  1  'x, y, z'
loop_
 _atom_site_type_symbol
 _atom_site_label
 _atom_site_symmetry_multiplicity
 _atom_site_fract_x
 _atom_site_fract_y
 _atom_site_fract_z
 _atom_site_occupancy
  Mg  Mg0  1  0.06522700  0.15928816  0.49233546  1
  Mg  Mg1  1  0.56628862  0.65936088  0.99215114  1
  In  In2  1  0.31606078  0.40936973  0.74225420  1
  Hg  Hg3  1  0.81589882  0.90903718  0.24210989  1
