# generated using pymatgen
data_MgSc3Au4
_symmetry_space_group_name_H-M   'P 1'
_cell_length_a   4.76510044
_cell_length_b   4.76303490
_cell_length_c   6.80971132
_cell_angle_alpha   89.88927134
_cell_angle_beta   89.88632208
_cell_angle_gamma   89.95341135
_symmetry_Int_Tables_number   1
_chemical_formula_structural   MgSc3Au4
_chemical_formula_sum   'Mg1 Sc3 Au4'
_cell_volume   154.55487816
_cell_formula_units_Z   1
loop_
 _symmetry_equiv_pos_site_id
 _symmetry_equiv_pos_as_xyz
  1  'x, y, z'
loop_
 _atom_site_type_symbol
 _atom_site_label
 _atom_site_symmetry_multiplicity
 _atom_site_fract_x
 _atom_site_fract_y
 _atom_site_fract_z
 _atom_site_occupancy
  Mg  Mg0  1  0.10871290  0.96163088  0.13301639  1
  Sc  Sc1  1  0.60893072  0.46098931  0.13351224  1
  Sc  Sc2  1  0.60894045  0.46146248  0.63361748  1
  Sc  Sc3  1  0.10777022  0.96124854  0.63303072  1
  Au  Au4  1  0.60839202  0.96041132  0.38558208  1
  Au  Au5  1  0.10868395  0.46146770  0.88129114  1
  Au  Au6  1  0.60799393  0.96195606  0.88123362  1
  Au  Au7  1  0.10908543  0.46188322  0.38589491  1
