# generated using pymatgen
data_MgTlSnHgP3S11
_symmetry_space_group_name_H-M   'P 1'
_cell_length_a   4.23851163
_cell_length_b   10.40311226
_cell_length_c   12.38493233
_cell_angle_alpha   73.64422699
_cell_angle_beta   70.39007060
_cell_angle_gamma   80.76078413
_symmetry_Int_Tables_number   1
_chemical_formula_structural   MgTlSnHgP3S11
_chemical_formula_sum   'Mg1 Tl1 Sn1 Hg1 P3 S11'
_cell_volume   492.28617672
_cell_formula_units_Z   1
loop_
 _symmetry_equiv_pos_site_id
 _symmetry_equiv_pos_as_xyz
  1  'x, y, z'
loop_
 _atom_site_type_symbol
 _atom_site_label
 _atom_site_symmetry_multiplicity
 _atom_site_fract_x
 _atom_site_fract_y
 _atom_site_fract_z
 _atom_site_occupancy
  Mg  Mg0  1  0.54979518  0.66145405  0.59439585  1
  Tl  Tl1  1  0.08730182  0.18355820  0.87385992  1
  Sn  Sn2  1  0.80329480  0.56148808  0.88884027  1
  Hg  Hg3  1  0.15480655  0.92680794  0.35423270  1
  P  P4  1  0.18471723  0.62682501  0.34195754  1
  P  P5  1  -0.02615881  0.43775288  0.34812663  1
  P  P6  1  0.80025021  0.90895914  0.80622515  1
  S  S7  1  0.89962969  0.77001149  0.70305403  1
  S  S8  1  0.17803475  0.55014300  0.51984412  1
  S  S9  1  0.56179929  0.89410828  0.46329936  1
  S  S10  1  0.10078959  0.86055053  0.91139218  1
  S  S11  1  0.30852101  0.25986406  0.35117769  1
  S  S12  1  -0.04628753  0.48603324  0.17147491  1
  S  S13  1  0.54861809  0.24205051  0.17719910  1
  S  S14  1  0.43584566  0.47613338  0.78627384  1
  S  S15  1  0.63800899  0.65991885  0.20323139  1
  S  S16  1  0.31012698  0.10852131  0.14825055  1
  S  S17  1  0.76649713  0.09989396  0.71522786  1
