# generated using pymatgen
data_MgZnO2
_symmetry_space_group_name_H-M   'P 1'
_cell_length_a   4.29217624
_cell_length_b   3.04785215
_cell_length_c   6.79449582
_cell_angle_alpha   116.68916003
_cell_angle_beta   90.02055237
_cell_angle_gamma   90.00259333
_symmetry_Int_Tables_number   1
_chemical_formula_structural   MgZnO2
_chemical_formula_sum   'Mg2 Zn2 O4'
_cell_volume   79.41489983
_cell_formula_units_Z   2
loop_
 _symmetry_equiv_pos_site_id
 _symmetry_equiv_pos_as_xyz
  1  'x, y, z'
loop_
 _atom_site_type_symbol
 _atom_site_label
 _atom_site_symmetry_multiplicity
 _atom_site_fract_x
 _atom_site_fract_y
 _atom_site_fract_z
 _atom_site_occupancy
  Mg  Mg0  1  0.80501914  0.63961159  0.70423446  1
  Mg  Mg1  1  0.30521014  0.39100350  0.95570036  1
  Zn  Zn2  1  0.30488361  0.89174903  0.45661057  1
  Zn  Zn3  1  0.80482506  0.13827109  0.20333316  1
  O  O4  1  0.80512179  0.38389137  0.94826835  1
  O  O5  1  0.30492858  0.13546927  0.19977587  1
  O  O6  1  0.30505010  0.64667350  0.71167028  1
  O  O7  1  0.80497039  0.89520837  0.46021559  1
