# generated using pymatgen
data_MnAlAu6
_symmetry_space_group_name_H-M   'P 1'
_cell_length_a   3.21072813
_cell_length_b   3.21404983
_cell_length_c   13.35514676
_cell_angle_alpha   90.01485976
_cell_angle_beta   89.98563993
_cell_angle_gamma   90.00896724
_symmetry_Int_Tables_number   1
_chemical_formula_structural   MnAlAu6
_chemical_formula_sum   'Mn1 Al1 Au6'
_cell_volume   137.81762794
_cell_formula_units_Z   1
loop_
 _symmetry_equiv_pos_site_id
 _symmetry_equiv_pos_as_xyz
  1  'x, y, z'
loop_
 _atom_site_type_symbol
 _atom_site_label
 _atom_site_symmetry_multiplicity
 _atom_site_fract_x
 _atom_site_fract_y
 _atom_site_fract_z
 _atom_site_occupancy
  Mn  Mn0  1  0.28002522  0.81887318  0.10318939  1
  Al  Al1  1  0.27912841  0.81800797  0.34440667  1
  Au  Au2  1  0.77996136  0.31871793  0.45338870  1
  Au  Au3  1  0.28136673  0.81947512  0.59157117  1
  Au  Au4  1  0.28192490  0.82027776  0.85633469  1
  Au  Au5  1  0.78224585  0.32032905  0.72406313  1
  Au  Au6  1  0.78096114  0.31980107  0.99032894  1
  Au  Au7  1  0.77896878  0.31843958  0.22806575  1
