# generated using pymatgen
data_MnAl2Ru
_symmetry_space_group_name_H-M   'P 1'
_cell_length_a   4.23540224
_cell_length_b   4.23549610
_cell_length_c   4.23694808
_cell_angle_alpha   60.00576108
_cell_angle_beta   59.99341819
_cell_angle_gamma   59.95983452
_symmetry_Int_Tables_number   1
_chemical_formula_structural   MnAl2Ru
_chemical_formula_sum   'Mn1 Al2 Ru1'
_cell_volume   53.72821186
_cell_formula_units_Z   1
loop_
 _symmetry_equiv_pos_site_id
 _symmetry_equiv_pos_as_xyz
  1  'x, y, z'
loop_
 _atom_site_type_symbol
 _atom_site_label
 _atom_site_symmetry_multiplicity
 _atom_site_fract_x
 _atom_site_fract_y
 _atom_site_fract_z
 _atom_site_occupancy
  Mn  Mn0  1  0.57730877  0.28564244  0.31296744  1
  Al  Al1  1  0.32681738  0.03589415  0.06321696  1
  Al  Al2  1  0.82745837  0.53550450  0.56235355  1
  Ru  Ru3  1  0.07706094  0.78568592  0.81311272  1
