# generated using pymatgen
data_MnAu4Se5
_symmetry_space_group_name_H-M   'P 1'
_cell_length_a   3.99021209
_cell_length_b   4.06535063
_cell_length_c   16.50840862
_cell_angle_alpha   102.54640746
_cell_angle_beta   101.95660715
_cell_angle_gamma   70.11188581
_symmetry_Int_Tables_number   1
_chemical_formula_structural   MnAu4Se5
_chemical_formula_sum   'Mn1 Au4 Se5'
_cell_volume   243.20335305
_cell_formula_units_Z   1
loop_
 _symmetry_equiv_pos_site_id
 _symmetry_equiv_pos_as_xyz
  1  'x, y, z'
loop_
 _atom_site_type_symbol
 _atom_site_label
 _atom_site_symmetry_multiplicity
 _atom_site_fract_x
 _atom_site_fract_y
 _atom_site_fract_z
 _atom_site_occupancy
  Mn  Mn0  1  0.34140566  0.98178534  0.10539778  1
  Au  Au1  1  0.19059921  0.14387142  0.47907345  1
  Au  Au2  1  -0.02454352  0.87928399  0.67468417  1
  Au  Au3  1  -0.29761685  0.67050920  0.87275746  1
  Au  Au4  1  0.60582320  0.22364823  0.27234947  1
  Se  Se5  1  0.18371270  0.43242059  0.77417268  1
  Se  Se6  1  0.75212447  0.34065606  0.57968192  1
  Se  Se7  1  0.28734247  -0.08240251  0.33272167  1
  Se  Se8  1  0.72372004  0.37425677  0.13789411  1
  Se  Se9  1  0.18068867  0.96623768  0.95422069  1
