# generated using pymatgen
data_MnIn2
_symmetry_space_group_name_H-M   'P 1'
_cell_length_a   3.22540005
_cell_length_b   3.23162658
_cell_length_c   7.50710218
_cell_angle_alpha   77.26153586
_cell_angle_beta   77.20787758
_cell_angle_gamma   59.97479528
_symmetry_Int_Tables_number   1
_chemical_formula_structural   MnIn2
_chemical_formula_sum   'Mn1 In2'
_cell_volume   65.50650302
_cell_formula_units_Z   1
loop_
 _symmetry_equiv_pos_site_id
 _symmetry_equiv_pos_as_xyz
  1  'x, y, z'
loop_
 _atom_site_type_symbol
 _atom_site_label
 _atom_site_symmetry_multiplicity
 _atom_site_fract_x
 _atom_site_fract_y
 _atom_site_fract_z
 _atom_site_occupancy
  Mn  Mn0  1  0.23110096  0.36958043  0.23758038  1
  In  In1  1  0.79554733  0.93153089  0.53675355  1
  In  In2  1  0.66694579  0.80773804  0.93831200  1
