# generated using pymatgen
data_MnSnPb2
_symmetry_space_group_name_H-M   'P 1'
_cell_length_a   4.70763362
_cell_length_b   4.70845619
_cell_length_c   4.79672585
_cell_angle_alpha   89.99403864
_cell_angle_beta   89.99340943
_cell_angle_gamma   90.01228205
_symmetry_Int_Tables_number   1
_chemical_formula_structural   MnSnPb2
_chemical_formula_sum   'Mn1 Sn1 Pb2'
_cell_volume   106.32271859
_cell_formula_units_Z   1
loop_
 _symmetry_equiv_pos_site_id
 _symmetry_equiv_pos_as_xyz
  1  'x, y, z'
loop_
 _atom_site_type_symbol
 _atom_site_label
 _atom_site_symmetry_multiplicity
 _atom_site_fract_x
 _atom_site_fract_y
 _atom_site_fract_z
 _atom_site_occupancy
  Mn  Mn0  1  0.28801605  0.74285207  0.27360360  1
  Sn  Sn1  1  0.78692859  0.24305192  0.27171708  1
  Pb  Pb2  1  0.78748783  0.74314630  0.77219932  1
  Pb  Pb3  1  0.28719104  0.24295742  0.77179529  1
