# generated using pymatgen
data_Mo2WSe2S3
_symmetry_space_group_name_H-M   'P 1'
_cell_length_a   3.18103589
_cell_length_b   3.18069956
_cell_length_c   37.19331606
_cell_angle_alpha   88.68203723
_cell_angle_beta   92.24557855
_cell_angle_gamma   119.97329772
_symmetry_Int_Tables_number   1
_chemical_formula_structural   Mo2WSe2S3
_chemical_formula_sum   'Mo2 W1 Se2 S3'
_cell_volume   325.73655820
_cell_formula_units_Z   1
loop_
 _symmetry_equiv_pos_site_id
 _symmetry_equiv_pos_as_xyz
  1  'x, y, z'
loop_
 _atom_site_type_symbol
 _atom_site_label
 _atom_site_symmetry_multiplicity
 _atom_site_fract_x
 _atom_site_fract_y
 _atom_site_fract_z
 _atom_site_occupancy
  Mo  Mo0  1  0.83752745  0.15744447  0.18530406  1
  Mo  Mo1  1  0.68659061  0.49115038  0.56151109  1
  W  W2  1  0.27076220  0.82290851  0.37649218  1
  Se  Se3  1  0.15099199  0.82650473  0.13901578  1
  Se  Se4  1  0.19068913  0.82161276  0.23160508  1
  S  S5  1  0.91925506  0.15866350  0.33424187  1
  S  S6  1  0.33551777  0.82711543  0.52134092  1
  S  S7  1  0.95544020  0.15395405  0.41872578  1
