# generated using pymatgen
data_MoW3Se5S
_symmetry_space_group_name_H-M   'P 1'
_cell_length_a   3.19294132
_cell_length_b   3.19302577
_cell_length_c   42.16247043
_cell_angle_alpha   103.85221486
_cell_angle_beta   76.74747075
_cell_angle_gamma   120.00604638
_symmetry_Int_Tables_number   1
_chemical_formula_structural   MoW3Se5S
_chemical_formula_sum   'Mo1 W3 Se5 S1'
_cell_volume   358.33559478
_cell_formula_units_Z   1
loop_
 _symmetry_equiv_pos_site_id
 _symmetry_equiv_pos_as_xyz
  1  'x, y, z'
loop_
 _atom_site_type_symbol
 _atom_site_label
 _atom_site_symmetry_multiplicity
 _atom_site_fract_x
 _atom_site_fract_y
 _atom_site_fract_z
 _atom_site_occupancy
  Mo  Mo0  1  0.41772166  0.36222083  0.53082334  1
  W  W1  1  0.78880284  0.29244458  0.16694768  1
  W  W2  1  0.29539992  0.45747917  0.42438499  1
  W  W3  1  0.60130230  0.40988322  0.96972738  1
  Se  Se4  1  0.54631392  0.21805556  0.46716887  1
  Se  Se5  1  0.20158761  0.86842525  0.12557458  1
  Se  Se6  1  0.85216424  0.17058365  0.01243833  1
  Se  Se7  1  0.67144936  0.11951738  0.57198249  1
  Se  Se8  1  0.71063448  0.03075579  0.38183830  1
  S  S9  1  0.00829505  -0.00739223  0.93141894  1
