# generated using pymatgen
data_Na2OF
_symmetry_space_group_name_H-M   'P 1'
_cell_length_a   3.35539345
_cell_length_b   3.33860176
_cell_length_c   4.83381201
_cell_angle_alpha   90.16006398
_cell_angle_beta   90.10564298
_cell_angle_gamma   89.99292331
_symmetry_Int_Tables_number   1
_chemical_formula_structural   Na2OF
_chemical_formula_sum   'Na2 O1 F1'
_cell_volume   54.14961720
_cell_formula_units_Z   1
loop_
 _symmetry_equiv_pos_site_id
 _symmetry_equiv_pos_as_xyz
  1  'x, y, z'
loop_
 _atom_site_type_symbol
 _atom_site_label
 _atom_site_symmetry_multiplicity
 _atom_site_fract_x
 _atom_site_fract_y
 _atom_site_fract_z
 _atom_site_occupancy
  Na  Na0  1  0.58010462  0.49373244  0.34236475  1
  Na  Na1  1  0.08022782  0.99423682  0.84227920  1
  O  O2  1  0.58032961  0.49489323  0.84244538  1
  F  F3  1  0.08027411  0.99439791  0.34276604  1
