# generated using pymatgen
data_Na2YClF4
_symmetry_space_group_name_H-M   'P 1'
_cell_length_a   4.01034337
_cell_length_b   6.10387219
_cell_length_c   6.12432885
_cell_angle_alpha   106.00281551
_cell_angle_beta   90.02573065
_cell_angle_gamma   90.02011434
_symmetry_Int_Tables_number   1
_chemical_formula_structural   Na2YClF4
_chemical_formula_sum   'Na2 Y1 Cl1 F4'
_cell_volume   144.10561821
_cell_formula_units_Z   1
loop_
 _symmetry_equiv_pos_site_id
 _symmetry_equiv_pos_as_xyz
  1  'x, y, z'
loop_
 _atom_site_type_symbol
 _atom_site_label
 _atom_site_symmetry_multiplicity
 _atom_site_fract_x
 _atom_site_fract_y
 _atom_site_fract_z
 _atom_site_occupancy
  Na  Na0  1  0.38596907  0.74237091  0.33569465  1
  Na  Na1  1  0.38588972  0.43123117  0.65721071  1
  Y  Y2  1  0.88559079  0.97877904  0.88790993  1
  Cl  Cl3  1  0.38577304  0.26005202  0.17908220  1
  F  F4  1  0.88573580  0.24137044  0.71532635  1
  F  F5  1  0.38537294  0.86621805  0.77605546  1
  F  F6  1  0.88537757  0.67867408  0.58095473  1
  F  F7  1  0.88578919  0.79398381  0.13967762  1
