# generated using pymatgen
data_Na3NdS4
_symmetry_space_group_name_H-M   'P 1'
_cell_length_a   4.09039015
_cell_length_b   4.08976766
_cell_length_c   11.56114438
_cell_angle_alpha   89.49019599
_cell_angle_beta   89.67199138
_cell_angle_gamma   90.03805639
_symmetry_Int_Tables_number   1
_chemical_formula_structural   Na3NdS4
_chemical_formula_sum   'Na3 Nd1 S4'
_cell_volume   193.39256579
_cell_formula_units_Z   1
loop_
 _symmetry_equiv_pos_site_id
 _symmetry_equiv_pos_as_xyz
  1  'x, y, z'
loop_
 _atom_site_type_symbol
 _atom_site_label
 _atom_site_symmetry_multiplicity
 _atom_site_fract_x
 _atom_site_fract_y
 _atom_site_fract_z
 _atom_site_occupancy
  Na  Na0  1  0.92765225  0.89333814  0.49634579  1
  Na  Na1  1  0.42737532  0.39526922  0.73885080  1
  Na  Na2  1  0.93055554  0.89885851  0.98008623  1
  Nd  Nd3  1  0.43155071  0.39638060  0.23853408  1
  S  S4  1  0.92702539  0.89517752  0.73844134  1
  S  S5  1  0.42741744  0.39302585  0.47722896  1
  S  S6  1  0.93155706  0.89658093  0.23842569  1
  S  S7  1  0.43086482  0.39932463  0.99913253  1
