# generated using pymatgen
data_Na3Sb
_symmetry_space_group_name_H-M   'P 1'
_cell_length_a   5.35086182
_cell_length_b   5.33841759
_cell_length_c   5.35382824
_cell_angle_alpha   59.88850839
_cell_angle_beta   59.82825960
_cell_angle_gamma   59.86785387
_symmetry_Int_Tables_number   1
_chemical_formula_structural   Na3Sb
_chemical_formula_sum   'Na3 Sb1'
_cell_volume   107.80000708
_cell_formula_units_Z   1
loop_
 _symmetry_equiv_pos_site_id
 _symmetry_equiv_pos_as_xyz
  1  'x, y, z'
loop_
 _atom_site_type_symbol
 _atom_site_label
 _atom_site_symmetry_multiplicity
 _atom_site_fract_x
 _atom_site_fract_y
 _atom_site_fract_z
 _atom_site_occupancy
  Na  Na0  1  0.27673139  0.82435457  0.50591691  1
  Na  Na1  1  0.02722163  0.57500613  0.25638355  1
  Na  Na2  1  0.52731451  0.07521365  0.75646896  1
  Sb  Sb3  1  0.77902620  0.32529515  0.00807845  1
