# generated using pymatgen
data_Na3S2
_symmetry_space_group_name_H-M   'P 1'
_cell_length_a   4.70309366
_cell_length_b   4.70516243
_cell_length_c   6.07607946
_cell_angle_alpha   89.92337325
_cell_angle_beta   89.94681829
_cell_angle_gamma   60.01156528
_symmetry_Int_Tables_number   1
_chemical_formula_structural   Na3S2
_chemical_formula_sum   'Na3 S2'
_cell_volume   116.45617370
_cell_formula_units_Z   1
loop_
 _symmetry_equiv_pos_site_id
 _symmetry_equiv_pos_as_xyz
  1  'x, y, z'
loop_
 _atom_site_type_symbol
 _atom_site_label
 _atom_site_symmetry_multiplicity
 _atom_site_fract_x
 _atom_site_fract_y
 _atom_site_fract_z
 _atom_site_occupancy
  Na  Na0  1  0.38284895  0.65895139  0.76042541  1
  Na  Na1  1  0.71634776  0.99266001  0.07233078  1
  Na  Na2  1  0.04941749  0.32534008  0.44851681  1
  S  S3  1  0.71589250  0.99213408  0.54300397  1
  S  S4  1  0.04988165  0.32581500  0.97787613  1
