# generated using pymatgen
data_NaMnN2
_symmetry_space_group_name_H-M   'P 1'
_cell_length_a   2.91175263
_cell_length_b   2.91177962
_cell_length_c   5.82889653
_cell_angle_alpha   75.50423502
_cell_angle_beta   75.50130236
_cell_angle_gamma   59.99340420
_symmetry_Int_Tables_number   1
_chemical_formula_structural   NaMnN2
_chemical_formula_sum   'Na1 Mn1 N2'
_cell_volume   40.96900891
_cell_formula_units_Z   1
loop_
 _symmetry_equiv_pos_site_id
 _symmetry_equiv_pos_as_xyz
  1  'x, y, z'
loop_
 _atom_site_type_symbol
 _atom_site_label
 _atom_site_symmetry_multiplicity
 _atom_site_fract_x
 _atom_site_fract_y
 _atom_site_fract_z
 _atom_site_occupancy
  Na  Na0  1  0.68104500  0.42156377  0.91171689  1
  Mn  Mn1  1  0.17933081  0.92199291  0.41171003  1
  N  N2  1  0.90980380  0.65022771  0.22614010  1
  N  N3  1  0.45268981  0.19307632  0.59734783  1
