# generated using pymatgen
data_NaTl3
_symmetry_space_group_name_H-M   'P 1'
_cell_length_a   4.92337684
_cell_length_b   4.90084373
_cell_length_c   4.90701941
_cell_angle_alpha   89.97838118
_cell_angle_beta   89.94542253
_cell_angle_gamma   90.00573866
_symmetry_Int_Tables_number   1
_chemical_formula_structural   NaTl3
_chemical_formula_sum   'Na1 Tl3'
_cell_volume   118.39993894
_cell_formula_units_Z   1
loop_
 _symmetry_equiv_pos_site_id
 _symmetry_equiv_pos_as_xyz
  1  'x, y, z'
loop_
 _atom_site_type_symbol
 _atom_site_label
 _atom_site_symmetry_multiplicity
 _atom_site_fract_x
 _atom_site_fract_y
 _atom_site_fract_z
 _atom_site_occupancy
  Na  Na0  1  0.20746337  0.17707173  0.44871657  1
  Tl  Tl1  1  0.70731657  0.67756164  0.44835494  1
  Tl  Tl2  1  0.70834832  0.17724447  0.94789556  1
  Tl  Tl3  1  0.20785721  0.67736481  0.94863567  1
