# generated using pymatgen
data_NaTlPb2
_symmetry_space_group_name_H-M   'P 1'
_cell_length_a   5.58757228
_cell_length_b   5.58338416
_cell_length_c   5.58943817
_cell_angle_alpha   59.84810781
_cell_angle_beta   59.83984409
_cell_angle_gamma   59.86804643
_symmetry_Int_Tables_number   1
_chemical_formula_structural   NaTlPb2
_chemical_formula_sum   'Na1 Tl1 Pb2'
_cell_volume   122.88890293
_cell_formula_units_Z   1
loop_
 _symmetry_equiv_pos_site_id
 _symmetry_equiv_pos_as_xyz
  1  'x, y, z'
loop_
 _atom_site_type_symbol
 _atom_site_label
 _atom_site_symmetry_multiplicity
 _atom_site_fract_x
 _atom_site_fract_y
 _atom_site_fract_z
 _atom_site_occupancy
  Na  Na0  1  0.43187006  0.65581521  0.62791423  1
  Tl  Tl1  1  0.68248324  0.90578283  0.87764692  1
  Pb  Pb2  1  0.18169106  0.40532242  0.37793154  1
  Pb  Pb3  1  0.93287808  0.15637986  0.12804605  1
