# generated using pymatgen
data_Nb2AlGa3Co2
_symmetry_space_group_name_H-M   'P 1'
_cell_length_a   3.88068165
_cell_length_b   5.51053740
_cell_length_c   5.52539369
_cell_angle_alpha   88.42975785
_cell_angle_beta   89.99694914
_cell_angle_gamma   89.99760338
_symmetry_Int_Tables_number   1
_chemical_formula_structural   Nb2AlGa3Co2
_chemical_formula_sum   'Nb2 Al1 Ga3 Co2'
_cell_volume   118.11419167
_cell_formula_units_Z   1
loop_
 _symmetry_equiv_pos_site_id
 _symmetry_equiv_pos_as_xyz
  1  'x, y, z'
loop_
 _atom_site_type_symbol
 _atom_site_label
 _atom_site_symmetry_multiplicity
 _atom_site_fract_x
 _atom_site_fract_y
 _atom_site_fract_z
 _atom_site_occupancy
  Nb  Nb0  1  0.63145024  0.64019572  0.08209030  1
  Nb  Nb1  1  0.63144308  0.14674960  0.59071843  1
  Al  Al2  1  0.13144062  0.86207703  0.35623586  1
  Ga  Ga3  1  0.63138129  0.15188409  0.10406094  1
  Ga  Ga4  1  0.13148769  0.41556114  0.80239535  1
  Ga  Ga5  1  0.13146556  0.88854098  0.83175610  1
  Co  Co6  1  0.13141437  0.38900120  0.33422646  1
  Co  Co7  1  0.63144270  0.65076569  0.57928995  1
