# generated using pymatgen
data_Nb3O7
_symmetry_space_group_name_H-M   'P 1'
_cell_length_a   3.72263449
_cell_length_b   5.47526294
_cell_length_c   8.12561023
_cell_angle_alpha   77.45059256
_cell_angle_beta   115.21988658
_cell_angle_gamma   112.27506048
_symmetry_Int_Tables_number   1
_chemical_formula_structural   Nb3O7
_chemical_formula_sum   'Nb3 O7'
_cell_volume   138.34320995
_cell_formula_units_Z   1
loop_
 _symmetry_equiv_pos_site_id
 _symmetry_equiv_pos_as_xyz
  1  'x, y, z'
loop_
 _atom_site_type_symbol
 _atom_site_label
 _atom_site_symmetry_multiplicity
 _atom_site_fract_x
 _atom_site_fract_y
 _atom_site_fract_z
 _atom_site_occupancy
  Nb  Nb0  1  0.35097077  0.34518322  0.47522112  1
  Nb  Nb1  1  0.04450331  0.92374469  0.78802057  1
  Nb  Nb2  1  0.81762087  0.75217178  0.17433907  1
  O  O3  1  0.16081914  0.01414745  0.02359302  1
  O  O4  1  0.02744613  0.02755384  0.33091193  1
  O  O5  1  0.52243032  0.08699638  0.70399859  1
  O  O6  1  0.82860883  0.43486393  0.39624145  1
  O  O7  1  0.26663655  0.60192698  0.23192506  1
  O  O8  1  0.40271653  0.68396641  0.93081875  1
  O  O9  1  0.65073887  0.63877869  0.63775931  1
