# generated using pymatgen
data_Nb4V2B13W
_symmetry_space_group_name_H-M   'P 1'
_cell_length_a   3.08633559
_cell_length_b   6.16835647
_cell_length_c   10.09095662
_cell_angle_alpha   84.50797391
_cell_angle_beta   89.99963397
_cell_angle_gamma   89.99886472
_symmetry_Int_Tables_number   1
_chemical_formula_structural   Nb4V2B13W
_chemical_formula_sum   'Nb4 V2 B13 W1'
_cell_volume   191.22591319
_cell_formula_units_Z   1
loop_
 _symmetry_equiv_pos_site_id
 _symmetry_equiv_pos_as_xyz
  1  'x, y, z'
loop_
 _atom_site_type_symbol
 _atom_site_label
 _atom_site_symmetry_multiplicity
 _atom_site_fract_x
 _atom_site_fract_y
 _atom_site_fract_z
 _atom_site_occupancy
  Nb  Nb0  1  0.50111698  0.36583782  0.02842429  1
  Nb  Nb1  1  0.00110023  0.19305918  0.78131316  1
  Nb  Nb2  1  0.50109267  0.91700805  0.44873514  1
  Nb  Nb3  1  0.50111404  0.43438328  0.36742946  1
  V  V4  1  0.50110518  0.82081767  0.15548168  1
  V  V5  1  0.50110459  0.82378908  0.89066215  1
  B  B6  1  0.50109158  0.95369940  0.68046770  1
  B  B7  1  0.00111422  0.34339839  0.55172454  1
  B  B8  1  0.00110334  0.11846168  0.13538604  1
  B  B9  1  0.00111991  0.54722006  0.18544993  1
  B  B10  1  0.00110845  0.67142161  0.02344778  1
  B  B11  1  0.50108797  0.14114133  0.23587097  1
  B  B12  1  0.00111454  0.71715359  0.32126218  1
  B  B13  1  0.00110473  0.62470497  0.49187152  1
  B  B14  1  0.00109701  0.81925668  0.72909384  1
  B  B15  1  0.00110209  0.56783974  0.85530874  1
  B  B16  1  0.50110837  0.21515243  0.59246198  1
  B  B17  1  0.00109465  -0.02163021  0.00111818  1
  B  B18  1  0.00108164  0.00111473  0.28894617  1
  W  W19  1  0.50110052  0.57250266  0.66913287  1
