# generated using pymatgen
data_NbMo3SeS7
_symmetry_space_group_name_H-M   'P 1'
_cell_length_a   3.20087103
_cell_length_b   3.20242529
_cell_length_c   41.98687072
_cell_angle_alpha   93.33822462
_cell_angle_beta   95.24714388
_cell_angle_gamma   119.98802583
_symmetry_Int_Tables_number   1
_chemical_formula_structural   NbMo3SeS7
_chemical_formula_sum   'Nb1 Mo3 Se1 S7'
_cell_volume   368.50494389
_cell_formula_units_Z   1
loop_
 _symmetry_equiv_pos_site_id
 _symmetry_equiv_pos_as_xyz
  1  'x, y, z'
loop_
 _atom_site_type_symbol
 _atom_site_label
 _atom_site_symmetry_multiplicity
 _atom_site_fract_x
 _atom_site_fract_y
 _atom_site_fract_z
 _atom_site_occupancy
  Nb  Nb0  1  0.04805783  0.23680796  0.98409157  1
  Mo  Mo1  1  0.07876260  0.82844962  0.25186190  1
  Mo  Mo2  1  0.21253416  0.37811234  0.06199027  1
  Mo  Mo3  1  0.67588254  0.14091298  0.55379617  1
  Se  Se4  1  0.83823025  0.24080194  0.29513247  1
  S  S5  1  -0.04351817  0.77801134  0.09860707  1
  S  S6  1  0.45733324  0.96918730  0.02046190  1
  S  S7  1  0.92235444  0.03239881  0.42814888  1
  S  S8  1  -0.17288737  -0.05021513  0.38272250  1
  S  S9  1  -0.06967881  0.73932814  0.51634170  1
  S  S10  1  0.08812348  0.87550933  0.59123850  1
  S  S11  1  0.33375956  0.42712525  0.21452940  1
