# generated using pymatgen
data_NbOs
_symmetry_space_group_name_H-M   'P 1'
_cell_length_a   4.52393596
_cell_length_b   4.52358317
_cell_length_c   4.52360848
_cell_angle_alpha   60.01762830
_cell_angle_beta   60.03679457
_cell_angle_gamma   60.01075725
_symmetry_Int_Tables_number   1
_chemical_formula_structural   NbOs
_chemical_formula_sum   'Nb2 Os2'
_cell_volume   65.49118404
_cell_formula_units_Z   2
loop_
 _symmetry_equiv_pos_site_id
 _symmetry_equiv_pos_as_xyz
  1  'x, y, z'
loop_
 _atom_site_type_symbol
 _atom_site_label
 _atom_site_symmetry_multiplicity
 _atom_site_fract_x
 _atom_site_fract_y
 _atom_site_fract_z
 _atom_site_occupancy
  Nb  Nb0  1  0.92583044  0.80000199  0.18866307  1
  Nb  Nb1  1  0.42605794  0.29993939  0.68843060  1
  Os  Os2  1  0.17580239  0.04992635  0.43863237  1
  Os  Os3  1  0.67548848  0.54961904  0.93812496  1
