# generated using pymatgen
data_Nd2Bi2O3
_symmetry_space_group_name_H-M   'P 1'
_cell_length_a   3.98492647
_cell_length_b   3.98581622
_cell_length_c   11.19937233
_cell_angle_alpha   90.02540097
_cell_angle_beta   90.01447833
_cell_angle_gamma   60.02173120
_symmetry_Int_Tables_number   1
_chemical_formula_structural   Nd2Bi2O3
_chemical_formula_sum   'Nd2 Bi2 O3'
_cell_volume   154.08377612
_cell_formula_units_Z   1
loop_
 _symmetry_equiv_pos_site_id
 _symmetry_equiv_pos_as_xyz
  1  'x, y, z'
loop_
 _atom_site_type_symbol
 _atom_site_label
 _atom_site_symmetry_multiplicity
 _atom_site_fract_x
 _atom_site_fract_y
 _atom_site_fract_z
 _atom_site_occupancy
  Nd  Nd0  1  0.46763034  0.93298769  0.30989211  1
  Nd  Nd1  1  0.46753377  0.93299813  0.82604146  1
  Bi  Bi2  1  0.13403309  0.59959673  0.56836049  1
  Bi  Bi3  1  0.13434462  0.59960671  0.06828521  1
  O  O4  1  0.80088259  0.26646799  0.84515800  1
  O  O5  1  0.80095663  0.26642548  0.29052515  1
  O  O6  1  0.46767697  0.93308033  0.06902988  1
