# generated using pymatgen
data_Nd2ZrNbCu2Bi2Sb7Se3
_symmetry_space_group_name_H-M   'P 1'
_cell_length_a   4.44148503
_cell_length_b   4.44175875
_cell_length_c   29.11518359
_cell_angle_alpha   90.06459472
_cell_angle_beta   89.97697792
_cell_angle_gamma   119.99231022
_symmetry_Int_Tables_number   1
_chemical_formula_structural   Nd2ZrNbCu2Bi2Sb7Se3
_chemical_formula_sum   'Nd2 Zr1 Nb1 Cu2 Bi2 Sb7 Se3'
_cell_volume   497.46977333
_cell_formula_units_Z   1
loop_
 _symmetry_equiv_pos_site_id
 _symmetry_equiv_pos_as_xyz
  1  'x, y, z'
loop_
 _atom_site_type_symbol
 _atom_site_label
 _atom_site_symmetry_multiplicity
 _atom_site_fract_x
 _atom_site_fract_y
 _atom_site_fract_z
 _atom_site_occupancy
  Nd  Nd0  1  0.77618202  0.58079504  0.32875844  1
  Nd  Nd1  1  0.44320335  0.91328639  0.87019876  1
  Zr  Zr2  1  0.44277309  0.91521424  0.44792901  1
  Nb  Nb3  1  0.10963359  0.24943823  0.53708851  1
  Cu  Cu4  1  0.10981125  0.24623347  0.93745815  1
  Cu  Cu5  1  0.77618436  0.57985158  0.80274766  1
  Bi  Bi6  1  0.11038130  0.25222496  0.65307875  1
  Bi  Bi7  1  0.44405169  0.92011201  0.71564076  1
  Sb  Sb8  1  0.10940879  0.24785422  0.39180076  1
  Sb  Sb9  1  0.77621277  0.58237266  0.49414927  1
  Sb  Sb10  1  0.10958227  0.24640455  0.80271049  1
  Sb  Sb11  1  0.11147770  0.24981847  0.02739722  1
  Sb  Sb12  1  0.10970057  0.24726081  0.20527672  1
  Sb  Sb13  1  0.44316618  0.91675244  0.57696252  1
  Sb  Sb14  1  0.77691553  0.58031732  0.94329887  1
  Se  Se15  1  0.44443184  0.91544050  0.06645028  1
  Se  Se16  1  0.77628452  0.57991110  0.16213358  1
  Se  Se17  1  0.44277508  0.91358823  0.27347452  1
