# generated using pymatgen
data_Nd3InAu4
_symmetry_space_group_name_H-M   'P 1'
_cell_length_a   3.78830623
_cell_length_b   7.16622914
_cell_length_c   7.16041235
_cell_angle_alpha   90.00192721
_cell_angle_beta   90.03150519
_cell_angle_gamma   90.05701761
_symmetry_Int_Tables_number   1
_chemical_formula_structural   Nd3InAu4
_chemical_formula_sum   'Nd3 In1 Au4'
_cell_volume   194.38982100
_cell_formula_units_Z   1
loop_
 _symmetry_equiv_pos_site_id
 _symmetry_equiv_pos_as_xyz
  1  'x, y, z'
loop_
 _atom_site_type_symbol
 _atom_site_label
 _atom_site_symmetry_multiplicity
 _atom_site_fract_x
 _atom_site_fract_y
 _atom_site_fract_z
 _atom_site_occupancy
  Nd  Nd0  1  0.99060249  0.03467950  0.15355344  1
  Nd  Nd1  1  0.99135350  0.53500620  0.15332186  1
  Nd  Nd2  1  0.99095420  0.53462714  0.65309061  1
  In  In3  1  0.99055198  0.03503460  0.65332782  1
  Au  Au4  1  0.49094273  0.79508920  0.41461026  1
  Au  Au5  1  0.49102539  0.79537283  0.89158180  1
  Au  Au6  1  0.49074679  0.27443503  0.41430661  1
  Au  Au7  1  0.49092018  0.27323938  0.89252840  1
