# generated using pymatgen
data_Nd3Sn7Pt2
_symmetry_space_group_name_H-M   'P 1'
_cell_length_a   4.80528535
_cell_length_b   4.68507520
_cell_length_c   13.58446359
_cell_angle_alpha   89.99700965
_cell_angle_beta   90.03595560
_cell_angle_gamma   90.00047623
_symmetry_Int_Tables_number   1
_chemical_formula_structural   Nd3Sn7Pt2
_chemical_formula_sum   'Nd3 Sn7 Pt2'
_cell_volume   305.82864173
_cell_formula_units_Z   1
loop_
 _symmetry_equiv_pos_site_id
 _symmetry_equiv_pos_as_xyz
  1  'x, y, z'
loop_
 _atom_site_type_symbol
 _atom_site_label
 _atom_site_symmetry_multiplicity
 _atom_site_fract_x
 _atom_site_fract_y
 _atom_site_fract_z
 _atom_site_occupancy
  Nd  Nd0  1  0.75459675  0.04700092  0.11608533  1
  Nd  Nd1  1  0.75471051  0.54644440  0.89872750  1
  Nd  Nd2  1  0.75516368  0.04699550  0.45141887  1
  Sn  Sn3  1  0.25507432  0.54705495  0.44756482  1
  Sn  Sn4  1  0.25487082  0.04658765  0.89337844  1
  Sn  Sn5  1  0.25489050  0.04746046  0.27751655  1
  Sn  Sn6  1  0.25458889  0.54705651  0.08258300  1
  Sn  Sn7  1  0.25548493  0.04663171  0.64197379  1
  Sn  Sn8  1  0.75493242  0.54619996  0.63940614  1
  Sn  Sn9  1  0.75489673  0.54714062  0.28077017  1
  Pt  Pt10  1  0.75590687  0.04595345  0.74398389  1
  Pt  Pt11  1  0.25457515  0.54676699  0.76610801  1
