# generated using pymatgen
data_NdHg3
_symmetry_space_group_name_H-M   'P 1'
_cell_length_a   5.05211262
_cell_length_b   5.06697091
_cell_length_c   5.30238395
_cell_angle_alpha   118.24249303
_cell_angle_beta   118.21714479
_cell_angle_gamma   90.02441200
_symmetry_Int_Tables_number   1
_chemical_formula_structural   NdHg3
_chemical_formula_sum   'Nd1 Hg3'
_cell_volume   100.87725480
_cell_formula_units_Z   1
loop_
 _symmetry_equiv_pos_site_id
 _symmetry_equiv_pos_as_xyz
  1  'x, y, z'
loop_
 _atom_site_type_symbol
 _atom_site_label
 _atom_site_symmetry_multiplicity
 _atom_site_fract_x
 _atom_site_fract_y
 _atom_site_fract_z
 _atom_site_occupancy
  Nd  Nd0  1  0.07345002  0.99287290  0.15143401  1
  Hg  Hg1  1  0.57335906  0.49276666  0.15128042  1
  Hg  Hg2  1  0.82354712  0.24365801  0.65222261  1
  Hg  Hg3  1  0.32327198  0.74196178  0.65043466  1
