# generated using pymatgen
data_NdSiNi3
_symmetry_space_group_name_H-M   'P 1'
_cell_length_a   4.36409040
_cell_length_b   4.36384622
_cell_length_c   4.36298861
_cell_angle_alpha   90.02080633
_cell_angle_beta   90.05603085
_cell_angle_gamma   89.91270652
_symmetry_Int_Tables_number   1
_chemical_formula_structural   NdSiNi3
_chemical_formula_sum   'Nd1 Si1 Ni3'
_cell_volume   83.08957073
_cell_formula_units_Z   1
loop_
 _symmetry_equiv_pos_site_id
 _symmetry_equiv_pos_as_xyz
  1  'x, y, z'
loop_
 _atom_site_type_symbol
 _atom_site_label
 _atom_site_symmetry_multiplicity
 _atom_site_fract_x
 _atom_site_fract_y
 _atom_site_fract_z
 _atom_site_occupancy
  Nd  Nd0  1  0.88568838  0.49631796  0.06986877  1
  Si  Si1  1  0.38587344  0.99618106  0.56963246  1
  Ni  Ni2  1  0.38630962  0.49613501  0.56919864  1
  Ni  Ni3  1  0.88588690  0.99597743  0.56937534  1
  Ni  Ni4  1  0.38583248  0.99610319  0.06967714  1
