# generated using pymatgen
data_NdYInCu
_symmetry_space_group_name_H-M   'P 1'
_cell_length_a   3.60118977
_cell_length_b   3.60183834
_cell_length_c   7.70665372
_cell_angle_alpha   89.99710748
_cell_angle_beta   89.99557050
_cell_angle_gamma   90.05758489
_symmetry_Int_Tables_number   1
_chemical_formula_structural   NdYInCu
_chemical_formula_sum   'Nd1 Y1 In1 Cu1'
_cell_volume   99.96220989
_cell_formula_units_Z   1
loop_
 _symmetry_equiv_pos_site_id
 _symmetry_equiv_pos_as_xyz
  1  'x, y, z'
loop_
 _atom_site_type_symbol
 _atom_site_label
 _atom_site_symmetry_multiplicity
 _atom_site_fract_x
 _atom_site_fract_y
 _atom_site_fract_z
 _atom_site_occupancy
  Nd  Nd0  1  0.64042804  0.70416353  0.43845585  1
  Y  Y1  1  0.64046587  0.70419372  0.99032863  1
  In  In2  1  0.14049012  0.20419381  0.72388717  1
  Cu  Cu3  1  0.14022290  0.20431325  0.19196332  1
