# generated using pymatgen
data_NiSn2
_symmetry_space_group_name_H-M   'P 1'
_cell_length_a   4.45641955
_cell_length_b   4.44535002
_cell_length_c   4.45246627
_cell_angle_alpha   59.76294789
_cell_angle_beta   59.67781241
_cell_angle_gamma   59.85823865
_symmetry_Int_Tables_number   1
_chemical_formula_structural   NiSn2
_chemical_formula_sum   'Ni1 Sn2'
_cell_volume   62.03905840
_cell_formula_units_Z   1
loop_
 _symmetry_equiv_pos_site_id
 _symmetry_equiv_pos_as_xyz
  1  'x, y, z'
loop_
 _atom_site_type_symbol
 _atom_site_label
 _atom_site_symmetry_multiplicity
 _atom_site_fract_x
 _atom_site_fract_y
 _atom_site_fract_z
 _atom_site_occupancy
  Ni  Ni0  1  0.31833033  0.52285513  0.27078784  1
  Sn  Sn1  1  0.06826325  0.27208328  0.02077186  1
  Sn  Sn2  1  0.56785803  0.77137388  0.52088226  1
