# generated using pymatgen
data_Pd5Se4
_symmetry_space_group_name_H-M   'P 1'
_cell_length_a   4.12540583
_cell_length_b   7.08421760
_cell_length_c   7.10700376
_cell_angle_alpha   109.76292212
_cell_angle_beta   90.02763406
_cell_angle_gamma   89.93854055
_symmetry_Int_Tables_number   1
_chemical_formula_structural   Pd5Se4
_chemical_formula_sum   'Pd5 Se4'
_cell_volume   195.47018961
_cell_formula_units_Z   1
loop_
 _symmetry_equiv_pos_site_id
 _symmetry_equiv_pos_as_xyz
  1  'x, y, z'
loop_
 _atom_site_type_symbol
 _atom_site_label
 _atom_site_symmetry_multiplicity
 _atom_site_fract_x
 _atom_site_fract_y
 _atom_site_fract_z
 _atom_site_occupancy
  Pd  Pd0  1  0.69824611  0.94933851  0.46392219  1
  Pd  Pd1  1  0.69774710  0.19693277  0.21933085  1
  Pd  Pd2  1  0.19844146  0.95545257  0.97480345  1
  Pd  Pd3  1  0.69663658  0.44395588  0.96835797  1
  Pd  Pd4  1  0.19719026  0.44213844  0.46126933  1
  Se  Se5  1  0.19839369  0.82399299  0.59348178  1
  Se  Se6  1  0.69875238  0.81210866  0.08654040  1
  Se  Se7  1  0.69761389  0.32786868  0.60196938  1
  Se  Se8  1  0.19698757  0.33396432  0.08413894  1
