# generated using pymatgen
data_Pr2Br2O
_symmetry_space_group_name_H-M   'P 1'
_cell_length_a   3.95987199
_cell_length_b   3.96030460
_cell_length_c   8.76226409
_cell_angle_alpha   90.08419864
_cell_angle_beta   90.03870136
_cell_angle_gamma   90.02482100
_symmetry_Int_Tables_number   1
_chemical_formula_structural   Pr2Br2O
_chemical_formula_sum   'Pr2 Br2 O1'
_cell_volume   137.41225514
_cell_formula_units_Z   1
loop_
 _symmetry_equiv_pos_site_id
 _symmetry_equiv_pos_as_xyz
  1  'x, y, z'
loop_
 _atom_site_type_symbol
 _atom_site_label
 _atom_site_symmetry_multiplicity
 _atom_site_fract_x
 _atom_site_fract_y
 _atom_site_fract_z
 _atom_site_occupancy
  Pr  Pr0  1  0.45823689  0.44180938  0.55860626  1
  Pr  Pr1  1  0.95867020  0.94283793  0.85283029  1
  Br  Br2  1  0.95792830  0.94119362  0.38164826  1
  Br  Br3  1  0.45889566  0.44332664  0.02978126  1
  O  O4  1  0.95848287  0.44234855  0.70572533  1
