# generated using pymatgen
data_Pr2In4Rh3
_symmetry_space_group_name_H-M   'P 1'
_cell_length_a   4.80097816
_cell_length_b   4.67702564
_cell_length_c   9.36849214
_cell_angle_alpha   75.67994953
_cell_angle_beta   89.89918498
_cell_angle_gamma   89.98335070
_symmetry_Int_Tables_number   1
_chemical_formula_structural   Pr2In4Rh3
_chemical_formula_sum   'Pr2 In4 Rh3'
_cell_volume   203.82645940
_cell_formula_units_Z   1
loop_
 _symmetry_equiv_pos_site_id
 _symmetry_equiv_pos_as_xyz
  1  'x, y, z'
loop_
 _atom_site_type_symbol
 _atom_site_label
 _atom_site_symmetry_multiplicity
 _atom_site_fract_x
 _atom_site_fract_y
 _atom_site_fract_z
 _atom_site_occupancy
  Pr  Pr0  1  0.79844942  0.07998911  0.02154668  1
  Pr  Pr1  1  0.29917403  0.39582171  0.38851185  1
  In  In2  1  0.30046227  0.76572366  0.65029523  1
  In  In3  1  0.29883779  0.58998661  0.00203964  1
  In  In4  1  0.79917712  0.89593954  0.38909597  1
  In  In5  1  0.79943906  0.26448758  0.64597549  1
  Rh  Rh6  1  0.29821955  0.99035415  0.19645047  1
  Rh  Rh7  1  0.29896164  0.18616805  0.81275454  1
  Rh  Rh8  1  0.80047365  0.68139405  0.81387788  1
