# generated using pymatgen
data_Pr3InPd4
_symmetry_space_group_name_H-M   'P 1'
_cell_length_a   5.18386346
_cell_length_b   6.14051625
_cell_length_c   6.14006407
_cell_angle_alpha   109.54734876
_cell_angle_beta   89.99787065
_cell_angle_gamma   90.00447583
_symmetry_Int_Tables_number   1
_chemical_formula_structural   Pr3InPd4
_chemical_formula_sum   'Pr3 In1 Pd4'
_cell_volume   184.18346236
_cell_formula_units_Z   1
loop_
 _symmetry_equiv_pos_site_id
 _symmetry_equiv_pos_as_xyz
  1  'x, y, z'
loop_
 _atom_site_type_symbol
 _atom_site_label
 _atom_site_symmetry_multiplicity
 _atom_site_fract_x
 _atom_site_fract_y
 _atom_site_fract_z
 _atom_site_occupancy
  Pr  Pr0  1  0.73606202  0.85029132  0.78239724  1
  Pr  Pr1  1  0.23578221  0.57540758  0.05999893  1
  Pr  Pr2  1  0.23579021  0.12748739  0.50773260  1
  In  In3  1  0.73574488  0.35004246  0.28243304  1
  Pd  Pd4  1  0.23613072  0.63701403  0.56972490  1
  Pd  Pd5  1  0.23615980  0.06486901  -0.00271864  1
  Pd  Pd6  1  0.73573013  0.35089421  0.78416463  1
  Pd  Pd7  1  0.73575759  0.85218735  0.28285162  1
