# generated using pymatgen
data_PrAl4
_symmetry_space_group_name_H-M   'P 1'
_cell_length_a   4.26759968
_cell_length_b   4.27226384
_cell_length_c   5.74426925
_cell_angle_alpha   89.99938118
_cell_angle_beta   90.00379729
_cell_angle_gamma   89.99600974
_symmetry_Int_Tables_number   1
_chemical_formula_structural   PrAl4
_chemical_formula_sum   'Pr1 Al4'
_cell_volume   104.73130777
_cell_formula_units_Z   1
loop_
 _symmetry_equiv_pos_site_id
 _symmetry_equiv_pos_as_xyz
  1  'x, y, z'
loop_
 _atom_site_type_symbol
 _atom_site_label
 _atom_site_symmetry_multiplicity
 _atom_site_fract_x
 _atom_site_fract_y
 _atom_site_fract_z
 _atom_site_occupancy
  Pr  Pr0  1  0.90032077  0.18740149  0.53240787  1
  Al  Al1  1  0.40025351  0.68763698  0.31335526  1
  Al  Al2  1  0.40014392  0.18782925  0.03232869  1
  Al  Al3  1  0.40029383  0.68746097  0.75214656  1
  Al  Al4  1  0.90027655  0.68787857  0.03285698  1
