# generated using pymatgen
data_PrEr3In2NiBi
_symmetry_space_group_name_H-M   'P 1'
_cell_length_a   4.66718694
_cell_length_b   4.69864782
_cell_length_c   10.57497859
_cell_angle_alpha   116.19717545
_cell_angle_beta   89.98416318
_cell_angle_gamma   90.00085761
_symmetry_Int_Tables_number   1
_chemical_formula_structural   PrEr3In2NiBi
_chemical_formula_sum   'Pr1 Er3 In2 Ni1 Bi1'
_cell_volume   208.08253038
_cell_formula_units_Z   1
loop_
 _symmetry_equiv_pos_site_id
 _symmetry_equiv_pos_as_xyz
  1  'x, y, z'
loop_
 _atom_site_type_symbol
 _atom_site_label
 _atom_site_symmetry_multiplicity
 _atom_site_fract_x
 _atom_site_fract_y
 _atom_site_fract_z
 _atom_site_occupancy
  Pr  Pr0  1  0.56092957  0.12583085  0.34748133  1
  Er  Er1  1  0.06030937  0.20556812  0.92576333  1
  Er  Er2  1  0.06062320  0.41829325  0.63917679  1
  Er  Er3  1  0.06086426  0.63197708  0.35364070  1
  In  In4  1  0.06108065  0.91134298  0.13224455  1
  In  In5  1  0.56064409  0.89187146  0.61319085  1
  Ni  Ni6  1  0.56067893  0.42881130  0.14898393  1
  Bi  Bi7  1  0.56049040  0.66950064  0.88989207  1
