# generated using pymatgen
data_Rb3CuO4
_symmetry_space_group_name_H-M   'P 1'
_cell_length_a   3.91865676
_cell_length_b   4.38283130
_cell_length_c   9.63557427
_cell_angle_alpha   89.96519897
_cell_angle_beta   89.92014280
_cell_angle_gamma   89.92938724
_symmetry_Int_Tables_number   1
_chemical_formula_structural   Rb3CuO4
_chemical_formula_sum   'Rb3 Cu1 O4'
_cell_volume   165.48885501
_cell_formula_units_Z   1
loop_
 _symmetry_equiv_pos_site_id
 _symmetry_equiv_pos_as_xyz
  1  'x, y, z'
loop_
 _atom_site_type_symbol
 _atom_site_label
 _atom_site_symmetry_multiplicity
 _atom_site_fract_x
 _atom_site_fract_y
 _atom_site_fract_z
 _atom_site_occupancy
  Rb  Rb0  1  0.77016923  0.32286741  0.40046830  1
  Rb  Rb1  1  0.76854144  0.32051188  0.82724090  1
  Rb  Rb2  1  0.26846098  0.82184747  0.11354688  1
  Cu  Cu3  1  0.26909878  0.82190873  0.61369419  1
  O  O4  1  0.26880832  0.81991737  0.79908090  1
  O  O5  1  0.76845191  0.32192693  0.11399463  1
  O  O6  1  0.27046704  0.82357037  0.42836385  1
  O  O7  1  0.76930137  0.82165195  0.61401032  1
