# generated using pymatgen
data_Rb3Pd2Se3
_symmetry_space_group_name_H-M   'P 1'
_cell_length_a   4.67531756
_cell_length_b   6.74464367
_cell_length_c   9.59406073
_cell_angle_alpha   117.39407460
_cell_angle_beta   89.82067242
_cell_angle_gamma   70.06100742
_symmetry_Int_Tables_number   1
_chemical_formula_structural   Rb3Pd2Se3
_chemical_formula_sum   'Rb3 Pd2 Se3'
_cell_volume   247.82124091
_cell_formula_units_Z   1
loop_
 _symmetry_equiv_pos_site_id
 _symmetry_equiv_pos_as_xyz
  1  'x, y, z'
loop_
 _atom_site_type_symbol
 _atom_site_label
 _atom_site_symmetry_multiplicity
 _atom_site_fract_x
 _atom_site_fract_y
 _atom_site_fract_z
 _atom_site_occupancy
  Rb  Rb0  1  0.97948266  -0.00249564  0.46677158  1
  Rb  Rb1  1  0.96635355  0.03828335  0.84799723  1
  Rb  Rb2  1  0.62733420  0.70640970  0.03701928  1
  Pd  Pd3  1  0.79252931  0.38032971  0.28526035  1
  Pd  Pd4  1  0.25675336  0.45083222  0.48112464  1
  Se  Se5  1  0.30682554  0.35321566  0.18224202  1
  Se  Se6  1  0.68132086  0.60328456  0.57658784  1
  Se  Se7  1  0.27538363  0.40999313  0.73964626  1
