# generated using pymatgen
data_Rb3ScSnS4F
_symmetry_space_group_name_H-M   'P 1'
_cell_length_a   5.28361991
_cell_length_b   5.05475067
_cell_length_c   9.52574869
_cell_angle_alpha   90.13558781
_cell_angle_beta   89.98151093
_cell_angle_gamma   90.00904080
_symmetry_Int_Tables_number   1
_chemical_formula_structural   Rb3ScSnS4F
_chemical_formula_sum   'Rb3 Sc1 Sn1 S4 F1'
_cell_volume   254.40707350
_cell_formula_units_Z   1
loop_
 _symmetry_equiv_pos_site_id
 _symmetry_equiv_pos_as_xyz
  1  'x, y, z'
loop_
 _atom_site_type_symbol
 _atom_site_label
 _atom_site_symmetry_multiplicity
 _atom_site_fract_x
 _atom_site_fract_y
 _atom_site_fract_z
 _atom_site_occupancy
  Rb  Rb0  1  0.91561192  0.90079254  0.64869718  1
  Rb  Rb1  1  0.91395895  0.90307182  0.05997313  1
  Rb  Rb2  1  0.91401392  0.40245767  0.35510345  1
  Sc  Sc3  1  0.41487992  0.40217040  0.84960707  1
  Sn  Sn4  1  0.41409947  0.90269829  0.35345639  1
  S  S5  1  0.41418045  0.40334578  0.15686804  1
  S  S6  1  0.41490267  0.90220757  0.85443170  1
  S  S7  1  0.91477146  0.40197442  0.85436324  1
  S  S8  1  0.41414637  0.40171117  0.55676596  1
  F  F9  1  0.91427230  0.90246585  0.35470950  1
