# generated using pymatgen
data_Rb3SnF7
_symmetry_space_group_name_H-M   'P 1'
_cell_length_a   6.10868781
_cell_length_b   6.20509094
_cell_length_c   6.25023513
_cell_angle_alpha   86.69254584
_cell_angle_beta   92.62396080
_cell_angle_gamma   92.38543185
_symmetry_Int_Tables_number   1
_chemical_formula_structural   Rb3SnF7
_chemical_formula_sum   'Rb3 Sn1 F7'
_cell_volume   236.09176956
_cell_formula_units_Z   1
loop_
 _symmetry_equiv_pos_site_id
 _symmetry_equiv_pos_as_xyz
  1  'x, y, z'
loop_
 _atom_site_type_symbol
 _atom_site_label
 _atom_site_symmetry_multiplicity
 _atom_site_fract_x
 _atom_site_fract_y
 _atom_site_fract_z
 _atom_site_occupancy
  Rb  Rb0  1  0.25711415  0.20881802  0.40753343  1
  Rb  Rb1  1  0.25734613  0.70914907  0.90609073  1
  Rb  Rb2  1  0.75776932  0.20924147  0.90622867  1
  Sn  Sn3  1  0.75648964  0.70908501  0.40574557  1
  F  F4  1  0.98083785  0.83738594  0.20653889  1
  F  F5  1  0.25691306  0.20854740  0.90468799  1
  F  F6  1  0.65014709  0.49462494  0.19326752  1
  F  F7  1  0.86214694  0.92373991  0.61821131  1
  F  F8  1  0.53249824  0.58045936  0.60497037  1
  F  F9  1  0.54174659  0.91547217  0.26783949  1
  F  F10  1  0.97146490  0.50292860  0.54362306  1
