# generated using pymatgen
data_Rb4I5
_symmetry_space_group_name_H-M   'P 1'
_cell_length_a   7.49315377
_cell_length_b   7.18057077
_cell_length_c   9.91488444
_cell_angle_alpha   111.00607693
_cell_angle_beta   106.87812253
_cell_angle_gamma   90.26430745
_symmetry_Int_Tables_number   1
_chemical_formula_structural   Rb4I5
_chemical_formula_sum   'Rb4 I5'
_cell_volume   473.02549291
_cell_formula_units_Z   1
loop_
 _symmetry_equiv_pos_site_id
 _symmetry_equiv_pos_as_xyz
  1  'x, y, z'
loop_
 _atom_site_type_symbol
 _atom_site_label
 _atom_site_symmetry_multiplicity
 _atom_site_fract_x
 _atom_site_fract_y
 _atom_site_fract_z
 _atom_site_occupancy
  Rb  Rb0  1  0.69984119  0.89955800  0.09840425  1
  Rb  Rb1  1  0.98499237  0.66987207  0.63469431  1
  Rb  Rb2  1  0.24082936  0.46271744  0.22826018  1
  Rb  Rb3  1  0.52604321  0.23258306  0.76371915  1
  I  I4  1  0.72365269  0.44433905  0.19037015  1
  I  I5  1  0.11196113  0.06570060  0.42997113  1
  I  I6  1  0.02620534  0.24214563  0.78009905  1
  I  I7  1  0.50094747  0.68783242  0.67173490  1
  I  I8  1  0.19840214  0.89052961  0.08280922  1
