# generated using pymatgen
data_RbCl2
_symmetry_space_group_name_H-M   'P 1'
_cell_length_a   6.07033227
_cell_length_b   6.02550723
_cell_length_c   6.04379222
_cell_angle_alpha   120.68352582
_cell_angle_beta   89.75415416
_cell_angle_gamma   90.40899607
_symmetry_Int_Tables_number   1
_chemical_formula_structural   RbCl2
_chemical_formula_sum   'Rb2 Cl4'
_cell_volume   190.10886747
_cell_formula_units_Z   2
loop_
 _symmetry_equiv_pos_site_id
 _symmetry_equiv_pos_as_xyz
  1  'x, y, z'
loop_
 _atom_site_type_symbol
 _atom_site_label
 _atom_site_symmetry_multiplicity
 _atom_site_fract_x
 _atom_site_fract_y
 _atom_site_fract_z
 _atom_site_occupancy
  Rb  Rb0  1  0.34324682  0.12786307  0.46491555  1
  Rb  Rb1  1  0.84560596  0.45252507  0.13327236  1
  Cl  Cl2  1  0.84308598  0.12377747  0.46459657  1
  Cl  Cl3  1  0.59291611  0.78990652  0.79870680  1
  Cl  Cl4  1  0.34545881  0.45634244  0.13321143  1
  Cl  Cl5  1  0.09568856  0.79002188  0.79859858  1
