# generated using pymatgen
data_RbCuSe2
_symmetry_space_group_name_H-M   'P 1'
_cell_length_a   3.99764726
_cell_length_b   8.48979726
_cell_length_c   6.89917971
_cell_angle_alpha   89.97984143
_cell_angle_beta   89.99627358
_cell_angle_gamma   103.64252628
_symmetry_Int_Tables_number   1
_chemical_formula_structural   RbCuSe2
_chemical_formula_sum   'Rb2 Cu2 Se4'
_cell_volume   227.54638736
_cell_formula_units_Z   2
loop_
 _symmetry_equiv_pos_site_id
 _symmetry_equiv_pos_as_xyz
  1  'x, y, z'
loop_
 _atom_site_type_symbol
 _atom_site_label
 _atom_site_symmetry_multiplicity
 _atom_site_fract_x
 _atom_site_fract_y
 _atom_site_fract_z
 _atom_site_occupancy
  Rb  Rb0  1  0.36289695  0.60775337  0.93887844  1
  Rb  Rb1  1  0.07236489  0.02638198  0.43953946  1
  Cu  Cu2  1  0.81979230  0.51893671  0.43937898  1
  Cu  Cu3  1  0.61659989  0.11551975  0.93995930  1
  Se  Se4  1  0.04297891  0.96864801  0.93972529  1
  Se  Se5  1  0.71744461  0.31704305  0.18932776  1
  Se  Se6  1  0.39328158  0.66569081  0.43904862  1
  Se  Se7  1  0.71795114  0.31712799  0.68912548  1
