# generated using pymatgen
data_RbHgN
_symmetry_space_group_name_H-M   'P 1'
_cell_length_a   4.64488154
_cell_length_b   3.95662522
_cell_length_c   4.63413202
_cell_angle_alpha   89.99070334
_cell_angle_beta   91.35688384
_cell_angle_gamma   89.79666404
_symmetry_Int_Tables_number   1
_chemical_formula_structural   RbHgN
_chemical_formula_sum   'Rb1 Hg1 N1'
_cell_volume   85.14191522
_cell_formula_units_Z   1
loop_
 _symmetry_equiv_pos_site_id
 _symmetry_equiv_pos_as_xyz
  1  'x, y, z'
loop_
 _atom_site_type_symbol
 _atom_site_label
 _atom_site_symmetry_multiplicity
 _atom_site_fract_x
 _atom_site_fract_y
 _atom_site_fract_z
 _atom_site_occupancy
  Rb  Rb0  1  0.72474886  0.02536435  0.84565275  1
  Hg  Hg1  1  0.21592586  0.52462121  0.36880792  1
  N  N2  1  0.25518954  0.02443775  0.25865269  1
