# generated using pymatgen
data_RbSn2GePt2
_symmetry_space_group_name_H-M   'P 1'
_cell_length_a   3.95997212
_cell_length_b   5.47382138
_cell_length_c   14.85679857
_cell_angle_alpha   85.31587619
_cell_angle_beta   90.03666109
_cell_angle_gamma   90.00596742
_symmetry_Int_Tables_number   1
_chemical_formula_structural   RbSn2GePt2
_chemical_formula_sum   'Rb2 Sn4 Ge2 Pt4'
_cell_volume   320.96298227
_cell_formula_units_Z   2
loop_
 _symmetry_equiv_pos_site_id
 _symmetry_equiv_pos_as_xyz
  1  'x, y, z'
loop_
 _atom_site_type_symbol
 _atom_site_label
 _atom_site_symmetry_multiplicity
 _atom_site_fract_x
 _atom_site_fract_y
 _atom_site_fract_z
 _atom_site_occupancy
  Rb  Rb0  1  0.05862791  0.87382788  0.08620806  1
  Rb  Rb1  1  0.56091563  0.41618059  0.90009977  1
  Sn  Sn2  1  0.55818784  0.38900370  0.20714640  1
  Sn  Sn3  1  0.06033324  0.42486304  0.67273226  1
  Sn  Sn4  1  0.06073532  0.96154564  0.79105747  1
  Sn  Sn5  1  0.05965534  0.34102779  0.43053453  1
  Ge  Ge6  1  0.56018754  0.98266923  0.54410644  1
  Ge  Ge7  1  0.55848933  0.81176635  0.32038460  1
  Pt  Pt8  1  0.56048672  0.76283464  0.69787088  1
  Pt  Pt9  1  0.05817586  0.10789122  0.28465227  1
  Pt  Pt10  1  0.06002320  0.82360871  0.45277275  1
  Pt  Pt11  1  0.55999617  0.47125750  0.54341787  1
