# generated using pymatgen
data_ReO3
_symmetry_space_group_name_H-M   'P 1'
_cell_length_a   5.41780374
_cell_length_b   5.15386365
_cell_length_c   7.70953635
_cell_angle_alpha   85.90665325
_cell_angle_beta   115.05364579
_cell_angle_gamma   123.52834864
_symmetry_Int_Tables_number   1
_chemical_formula_structural   ReO3
_chemical_formula_sum   'Re3 O9'
_cell_volume   158.75861077
_cell_formula_units_Z   3
loop_
 _symmetry_equiv_pos_site_id
 _symmetry_equiv_pos_as_xyz
  1  'x, y, z'
loop_
 _atom_site_type_symbol
 _atom_site_label
 _atom_site_symmetry_multiplicity
 _atom_site_fract_x
 _atom_site_fract_y
 _atom_site_fract_z
 _atom_site_occupancy
  Re  Re0  1  0.07469818  0.53877985  0.85247670  1
  Re  Re1  1  0.37320251  0.08997428  0.18033079  1
  Re  Re2  1  0.22505594  0.81290016  0.51662095  1
  O  O3  1  0.94791767  0.67605428  -0.00280086  1
  O  O4  1  0.28401476  0.54877982  0.70069483  1
  O  O5  1  0.43294098  0.81834079  0.36878749  1
  O  O6  1  0.64902829  0.18269512  0.69922873  1
  O  O7  1  0.16499051  0.07855832  0.33257489  1
  O  O8  1  0.49930714  0.95213083  0.03515525  1
  O  O9  1  0.79986816  0.44404549  0.33371259  1
  O  O10  1  0.22417162  0.31447996  0.01675666  1
  O  O11  1  0.01493885  0.80848999  0.66326778  1
