# generated using pymatgen
data_RuCl3
_symmetry_space_group_name_H-M   'P 1'
_cell_length_a   5.70900879
_cell_length_b   7.34268804
_cell_length_c   7.21429043
_cell_angle_alpha   110.65328688
_cell_angle_beta   77.63130156
_cell_angle_gamma   67.61840280
_symmetry_Int_Tables_number   1
_chemical_formula_structural   RuCl3
_chemical_formula_sum   'Ru2 Cl6'
_cell_volume   239.50141171
_cell_formula_units_Z   2
loop_
 _symmetry_equiv_pos_site_id
 _symmetry_equiv_pos_as_xyz
  1  'x, y, z'
loop_
 _atom_site_type_symbol
 _atom_site_label
 _atom_site_symmetry_multiplicity
 _atom_site_fract_x
 _atom_site_fract_y
 _atom_site_fract_z
 _atom_site_occupancy
  Ru  Ru0  1  0.79166260  0.45464388  0.65069323  1
  Ru  Ru1  1  0.29148226  0.45464717  0.65069876  1
  Cl  Cl2  1  0.19873366  0.30171214  0.34611191  1
  Cl  Cl3  1  0.50244851  0.61899415  0.49855321  1
  Cl  Cl4  1  0.08041392  0.29065836  0.80335747  1
  Cl  Cl5  1  0.84544195  0.77105439  0.80206779  1
  Cl  Cl6  1  0.38475769  0.60701931  0.95509813  1
  Cl  Cl7  1  0.73772633  0.13838125  0.49900487  1
