# generated using pymatgen
data_SbICl6
_symmetry_space_group_name_H-M   'P 1'
_cell_length_a   4.21952613
_cell_length_b   6.80657824
_cell_length_c   10.78989556
_cell_angle_alpha   90.86751283
_cell_angle_beta   82.66011981
_cell_angle_gamma   81.09227753
_symmetry_Int_Tables_number   1
_chemical_formula_structural   SbICl6
_chemical_formula_sum   'Sb1 I1 Cl6'
_cell_volume   303.45235390
_cell_formula_units_Z   1
loop_
 _symmetry_equiv_pos_site_id
 _symmetry_equiv_pos_as_xyz
  1  'x, y, z'
loop_
 _atom_site_type_symbol
 _atom_site_label
 _atom_site_symmetry_multiplicity
 _atom_site_fract_x
 _atom_site_fract_y
 _atom_site_fract_z
 _atom_site_occupancy
  Sb  Sb0  1  0.97860279  0.19213689  0.21162256  1
  I  I1  1  0.40764894  0.69269336  0.70999354  1
  Cl  Cl2  1  0.03574639  0.45033428  0.76857791  1
  Cl  Cl3  1  0.39640365  0.97749015  0.30234782  1
  Cl  Cl4  1  0.79598120  0.40137191  0.40249524  1
  Cl  Cl5  1  0.02604878  0.98322233  0.02074077  1
  Cl  Cl6  1  0.35169850  0.40533447  0.12191371  1
  Cl  Cl7  1  0.77889067  0.93571476  0.65141454  1
