# generated using pymatgen
data_SbPt3
_symmetry_space_group_name_H-M   'P 1'
_cell_length_a   4.08919734
_cell_length_b   4.08758099
_cell_length_c   4.09933514
_cell_angle_alpha   90.00971241
_cell_angle_beta   90.09305246
_cell_angle_gamma   90.08340138
_symmetry_Int_Tables_number   1
_chemical_formula_structural   SbPt3
_chemical_formula_sum   'Sb1 Pt3'
_cell_volume   68.51991662
_cell_formula_units_Z   1
loop_
 _symmetry_equiv_pos_site_id
 _symmetry_equiv_pos_as_xyz
  1  'x, y, z'
loop_
 _atom_site_type_symbol
 _atom_site_label
 _atom_site_symmetry_multiplicity
 _atom_site_fract_x
 _atom_site_fract_y
 _atom_site_fract_z
 _atom_site_occupancy
  Sb  Sb0  1  0.88430373  0.14566732  0.33461231  1
  Pt  Pt1  1  0.88445158  0.64495405  0.83383201  1
  Pt  Pt2  1  0.38442012  0.64541908  0.33397232  1
  Pt  Pt3  1  0.38426332  0.14519293  0.83451369  1
