# generated using pymatgen
data_ScBe2N3
_symmetry_space_group_name_H-M   'P 1'
_cell_length_a   3.13887382
_cell_length_b   3.13880942
_cell_length_c   6.29177829
_cell_angle_alpha   105.06013208
_cell_angle_beta   76.03620133
_cell_angle_gamma   90.42783751
_symmetry_Int_Tables_number   1
_chemical_formula_structural   ScBe2N3
_chemical_formula_sum   'Sc1 Be2 N3'
_cell_volume   57.98963932
_cell_formula_units_Z   1
loop_
 _symmetry_equiv_pos_site_id
 _symmetry_equiv_pos_as_xyz
  1  'x, y, z'
loop_
 _atom_site_type_symbol
 _atom_site_label
 _atom_site_symmetry_multiplicity
 _atom_site_fract_x
 _atom_site_fract_y
 _atom_site_fract_z
 _atom_site_occupancy
  Sc  Sc0  1  0.47666727  0.08800509  0.68924970  1
  Be  Be1  1  0.73032284  0.33534345  0.18974119  1
  Be  Be2  1  0.22820057  0.83763241  0.18906372  1
  N  N3  1  0.29138382  0.27147315  0.06216563  1
  N  N4  1  0.97664256  0.58777655  0.68852306  1
  N  N5  1  0.66764530  0.90126331  0.31647088  1
