# generated using pymatgen
data_Si2Ni2Rh
_symmetry_space_group_name_H-M   'P 1'
_cell_length_a   3.77903087
_cell_length_b   4.01286331
_cell_length_c   4.93603943
_cell_angle_alpha   87.47102331
_cell_angle_beta   112.50596122
_cell_angle_gamma   118.05859782
_symmetry_Int_Tables_number   1
_chemical_formula_structural   Si2Ni2Rh
_chemical_formula_sum   'Si2 Ni2 Rh1'
_cell_volume   60.17094705
_cell_formula_units_Z   1
loop_
 _symmetry_equiv_pos_site_id
 _symmetry_equiv_pos_as_xyz
  1  'x, y, z'
loop_
 _atom_site_type_symbol
 _atom_site_label
 _atom_site_symmetry_multiplicity
 _atom_site_fract_x
 _atom_site_fract_y
 _atom_site_fract_z
 _atom_site_occupancy
  Si  Si0  1  0.32604174  0.36136064  0.62583708  1
  Si  Si1  1  0.73516329  0.58846852  0.21616612  1
  Ni  Ni2  1  0.53275943  0.97711727  0.42262942  1
  Ni  Ni3  1  0.99211741  0.20682520  0.11178035  1
  Rh  Rh4  1  0.09994766  0.75097365  0.78381473  1
