# generated using pymatgen
data_Si3Pt3Rh2
_symmetry_space_group_name_H-M   'P 1'
_cell_length_a   4.01757083
_cell_length_b   3.92753491
_cell_length_c   7.99822770
_cell_angle_alpha   104.20970566
_cell_angle_beta   104.68582948
_cell_angle_gamma   89.99719202
_symmetry_Int_Tables_number   1
_chemical_formula_structural   Si3Pt3Rh2
_chemical_formula_sum   'Si3 Pt3 Rh2'
_cell_volume   118.08642949
_cell_formula_units_Z   1
loop_
 _symmetry_equiv_pos_site_id
 _symmetry_equiv_pos_as_xyz
  1  'x, y, z'
loop_
 _atom_site_type_symbol
 _atom_site_label
 _atom_site_symmetry_multiplicity
 _atom_site_fract_x
 _atom_site_fract_y
 _atom_site_fract_z
 _atom_site_occupancy
  Si  Si0  1  0.09333027  0.58471348  0.27249503  1
  Si  Si1  1  0.39860733  0.89342745  0.89122214  1
  Si  Si2  1  0.18698625  0.23880958  0.58133294  1
  Pt  Pt3  1  0.90444280  0.35061835  0.80534674  1
  Pt  Pt4  1  0.50451492  0.73920683  0.58222330  1
  Pt  Pt5  1  0.67776344  0.12723252  0.35812452  1
  Rh  Rh6  1  0.49903158  0.49098625  0.08593213  1
  Rh  Rh7  1  0.99393156  -0.01301212  0.07802800  1
