# generated using pymatgen
data_SiO2
_symmetry_space_group_name_H-M   'P 1'
_cell_length_a   5.26218725
_cell_length_b   2.69796127
_cell_length_c   10.76171554
_cell_angle_alpha   60.25028308
_cell_angle_beta   99.09934340
_cell_angle_gamma   89.86714041
_symmetry_Int_Tables_number   1
_chemical_formula_structural   SiO2
_chemical_formula_sum   'Si4 O8'
_cell_volume   130.39670489
_cell_formula_units_Z   4
loop_
 _symmetry_equiv_pos_site_id
 _symmetry_equiv_pos_as_xyz
  1  'x, y, z'
loop_
 _atom_site_type_symbol
 _atom_site_label
 _atom_site_symmetry_multiplicity
 _atom_site_fract_x
 _atom_site_fract_y
 _atom_site_fract_z
 _atom_site_occupancy
  Si  Si0  1  0.08233326  0.56825077  0.96425665  1
  Si  Si1  1  0.08268208  0.56765672  0.71430686  1
  Si  Si2  1  0.08237063  0.56821488  0.46424781  1
  Si  Si3  1  0.08216112  0.56802237  0.21424465  1
  O  O4  1  0.25930818  0.86393457  0.06601036  1
  O  O5  1  0.90505159  0.27269862  0.36262645  1
  O  O6  1  0.25922037  0.86429745  0.31591596  1
  O  O7  1  0.90524239  0.27210056  0.11255379  1
  O  O8  1  0.90550730  0.27190419  0.86262725  1
  O  O9  1  0.90542389  0.27265483  0.61262134  1
  O  O10  1  0.25941937  0.86334306  0.56596402  1
  O  O11  1  0.25969876  0.86311861  0.81602099  1
