# generated using pymatgen
data_Sm9Ru5
_symmetry_space_group_name_H-M   'P 1'
_cell_length_a   4.07553507
_cell_length_b   7.75942923
_cell_length_c   11.49075973
_cell_angle_alpha   91.92505376
_cell_angle_beta   90.00482239
_cell_angle_gamma   90.00603655
_symmetry_Int_Tables_number   1
_chemical_formula_structural   Sm9Ru5
_chemical_formula_sum   'Sm9 Ru5'
_cell_volume   363.17669796
_cell_formula_units_Z   1
loop_
 _symmetry_equiv_pos_site_id
 _symmetry_equiv_pos_as_xyz
  1  'x, y, z'
loop_
 _atom_site_type_symbol
 _atom_site_label
 _atom_site_symmetry_multiplicity
 _atom_site_fract_x
 _atom_site_fract_y
 _atom_site_fract_z
 _atom_site_occupancy
  Sm  Sm0  1  0.95204082  0.89666480  0.33690380  1
  Sm  Sm1  1  0.45205199  0.61870404  0.15870057  1
  Sm  Sm2  1  0.95198179  0.44618932  0.42221032  1
  Sm  Sm3  1  0.95206142  0.76823556  0.64363689  1
  Sm  Sm4  1  0.45193031  0.19371527  0.18891159  1
  Sm  Sm5  1  0.95201730  0.95652184  0.97243712  1
  Sm  Sm6  1  0.45203128  0.10575419  0.53730085  1
  Sm  Sm7  1  0.95208325  0.26373809  0.75143182  1
  Sm  Sm8  1  0.45206891  0.59412801  0.86568568  1
  Ru  Ru9  1  0.45203453  0.46944563  0.61782595  1
  Ru  Ru10  1  0.45207221  0.25537275  0.95961823  1
  Ru  Ru11  1  0.95198002  0.39961584  0.03254576  1
  Ru  Ru12  1  0.45204089  0.70767455  0.42458566  1
  Ru  Ru13  1  0.45211313  0.97500594  0.78955823  1
