# generated using pymatgen
data_SmErIr2
_symmetry_space_group_name_H-M   'P 1'
_cell_length_a   3.44973608
_cell_length_b   4.87931107
_cell_length_c   4.87974213
_cell_angle_alpha   90.14985043
_cell_angle_beta   90.00004036
_cell_angle_gamma   90.00090042
_symmetry_Int_Tables_number   1
_chemical_formula_structural   SmErIr2
_chemical_formula_sum   'Sm1 Er1 Ir2'
_cell_volume   82.13717533
_cell_formula_units_Z   1
loop_
 _symmetry_equiv_pos_site_id
 _symmetry_equiv_pos_as_xyz
  1  'x, y, z'
loop_
 _atom_site_type_symbol
 _atom_site_label
 _atom_site_symmetry_multiplicity
 _atom_site_fract_x
 _atom_site_fract_y
 _atom_site_fract_z
 _atom_site_occupancy
  Sm  Sm0  1  0.87543083  0.44767360  0.39504832  1
  Er  Er1  1  0.87523843  0.94738041  0.89500528  1
  Ir  Ir2  1  0.37538746  0.44709180  0.89508921  1
  Ir  Ir3  1  0.37529368  0.94777837  0.39502442  1
