# generated using pymatgen
data_SmF3
_symmetry_space_group_name_H-M   'P 1'
_cell_length_a   6.04586057
_cell_length_b   6.01048557
_cell_length_c   8.51884281
_cell_angle_alpha   112.39432267
_cell_angle_beta   112.36067005
_cell_angle_gamma   87.69829484
_symmetry_Int_Tables_number   1
_chemical_formula_structural   SmF3
_chemical_formula_sum   'Sm4 F12'
_cell_volume   262.70033116
_cell_formula_units_Z   4
loop_
 _symmetry_equiv_pos_site_id
 _symmetry_equiv_pos_as_xyz
  1  'x, y, z'
loop_
 _atom_site_type_symbol
 _atom_site_label
 _atom_site_symmetry_multiplicity
 _atom_site_fract_x
 _atom_site_fract_y
 _atom_site_fract_z
 _atom_site_occupancy
  Sm  Sm0  1  0.31107742  0.54976371  0.10818329  1
  Sm  Sm1  1  0.80875711  0.51710843  0.62015468  1
  Sm  Sm2  1  0.27489266  0.05042833  0.61959030  1
  Sm  Sm3  1  0.77470499  0.02029000  0.13186911  1
  F  F4  1  0.04293033  0.28518368  0.12026183  1
  F  F5  1  0.44224838  0.72150856  0.95002090  1
  F  F6  1  0.58250539  0.37289075  0.29507776  1
  F  F7  1  0.50309546  0.19674046  0.94473625  1
  F  F8  1  0.00243903  0.24520680  0.44906898  1
  F  F9  1  0.54021230  0.78250747  0.61951886  1
  F  F10  1  0.08305196  0.32481754  0.79131332  1
  F  F11  1  0.15370860  0.83552985  0.29720602  1
  F  F12  1  0.93151202  0.73425461  0.94264090  1
  F  F13  1  0.54293522  0.28322302  0.62039826  1
  F  F14  1  0.04078859  0.78605959  0.62140891  1
  F  F15  1  0.64367791  0.84846322  0.29025580  1
