# generated using pymatgen
data_SmMgTl2
_symmetry_space_group_name_H-M   'P 1'
_cell_length_a   5.32609804
_cell_length_b   5.32760038
_cell_length_c   5.33264971
_cell_angle_alpha   59.92780209
_cell_angle_beta   59.94211141
_cell_angle_gamma   59.92773105
_symmetry_Int_Tables_number   1
_chemical_formula_structural   SmMgTl2
_chemical_formula_sum   'Sm1 Mg1 Tl2'
_cell_volume   106.83262048
_cell_formula_units_Z   1
loop_
 _symmetry_equiv_pos_site_id
 _symmetry_equiv_pos_as_xyz
  1  'x, y, z'
loop_
 _atom_site_type_symbol
 _atom_site_label
 _atom_site_symmetry_multiplicity
 _atom_site_fract_x
 _atom_site_fract_y
 _atom_site_fract_z
 _atom_site_occupancy
  Sm  Sm0  1  0.49729615  0.89125645  0.83923072  1
  Mg  Mg1  1  0.99738270  0.39148590  0.33921036  1
  Tl  Tl2  1  0.74699908  0.14130591  0.08888775  1
  Tl  Tl3  1  0.24748994  0.64145911  0.58894318  1
