# generated using pymatgen
data_SmSi6Pd5
_symmetry_space_group_name_H-M   'P 1'
_cell_length_a   4.28336723
_cell_length_b   4.17677296
_cell_length_c   10.83648338
_cell_angle_alpha   90.01750084
_cell_angle_beta   89.97687364
_cell_angle_gamma   89.98549620
_symmetry_Int_Tables_number   1
_chemical_formula_structural   SmSi6Pd5
_chemical_formula_sum   'Sm1 Si6 Pd5'
_cell_volume   193.87172666
_cell_formula_units_Z   1
loop_
 _symmetry_equiv_pos_site_id
 _symmetry_equiv_pos_as_xyz
  1  'x, y, z'
loop_
 _atom_site_type_symbol
 _atom_site_label
 _atom_site_symmetry_multiplicity
 _atom_site_fract_x
 _atom_site_fract_y
 _atom_site_fract_z
 _atom_site_occupancy
  Sm  Sm0  1  0.96227779  0.95864130  0.30872346  1
  Si  Si1  1  0.96159732  0.45894391  0.51521657  1
  Si  Si2  1  0.46201823  0.45853815  0.23561088  1
  Si  Si3  1  0.96159415  0.45865191  0.09535676  1
  Si  Si4  1  0.46226910  0.95824679  0.10260707  1
  Si  Si5  1  0.45780453  0.95911421  0.79907576  1
  Si  Si6  1  0.46196265  0.95942926  0.50633893  1
  Pd  Pd7  1  0.96206736  0.95910748  0.62726985  1
  Pd  Pd8  1  0.46198419  0.45934359  0.64040099  1
  Pd  Pd9  1  0.96238322  0.45939426  0.80468485  1
  Pd  Pd10  1  0.96253730  0.95861200  0.98643910  1
  Pd  Pd11  1  0.46203445  0.45764255  0.96329935  1
