# generated using pymatgen
data_SmTm
_symmetry_space_group_name_H-M   'P 1'
_cell_length_a   3.57966760
_cell_length_b   3.57725246
_cell_length_c   23.06948952
_cell_angle_alpha   90.01023336
_cell_angle_beta   89.99099027
_cell_angle_gamma   120.00033909
_symmetry_Int_Tables_number   1
_chemical_formula_structural   SmTm
_chemical_formula_sum   'Sm4 Tm4'
_cell_volume   255.83468034
_cell_formula_units_Z   4
loop_
 _symmetry_equiv_pos_site_id
 _symmetry_equiv_pos_as_xyz
  1  'x, y, z'
loop_
 _atom_site_type_symbol
 _atom_site_label
 _atom_site_symmetry_multiplicity
 _atom_site_fract_x
 _atom_site_fract_y
 _atom_site_fract_z
 _atom_site_occupancy
  Sm  Sm0  1  0.94634344  0.59721240  0.26103572  1
  Sm  Sm1  1  0.61306741  0.93210997  0.12993758  1
  Sm  Sm2  1  0.94015763  0.59100025  0.63373572  1
  Sm  Sm3  1  0.61221109  0.92992795  0.88295510  1
  Tm  Tm4  1  0.94674279  0.59896970  0.00647155  1
  Tm  Tm5  1  0.27610501  0.26036136  0.75865807  1
  Tm  Tm6  1  0.61088581  0.92753327  0.38629974  1
  Tm  Tm7  1  0.27464065  0.25856101  0.50815950  1
