# generated using pymatgen
data_SnPt3O4
_symmetry_space_group_name_H-M   'P 1'
_cell_length_a   3.91250796
_cell_length_b   3.93187325
_cell_length_c   7.94422646
_cell_angle_alpha   79.72239511
_cell_angle_beta   92.37376042
_cell_angle_gamma   101.01177057
_symmetry_Int_Tables_number   1
_chemical_formula_structural   SnPt3O4
_chemical_formula_sum   'Sn1 Pt3 O4'
_cell_volume   118.03157954
_cell_formula_units_Z   1
loop_
 _symmetry_equiv_pos_site_id
 _symmetry_equiv_pos_as_xyz
  1  'x, y, z'
loop_
 _atom_site_type_symbol
 _atom_site_label
 _atom_site_symmetry_multiplicity
 _atom_site_fract_x
 _atom_site_fract_y
 _atom_site_fract_z
 _atom_site_occupancy
  Sn  Sn0  1  0.83794231  0.72202809  0.30505438  1
  Pt  Pt1  1  0.57290412  0.67004780  0.88250861  1
  Pt  Pt2  1  0.02076418  0.31828159  0.07889423  1
  Pt  Pt3  1  0.23849506  0.12491526  0.52193975  1
  O  O4  1  0.29873792  0.47533382  0.29223359  1
  O  O5  1  0.16865517  0.77773484  0.72982812  1
  O  O6  1  0.75787125  0.25635040  0.50999191  1
  O  O7  1  0.70422659  0.19255505  -0.11267051  1
