# generated using pymatgen
data_Sr2BiO5
_symmetry_space_group_name_H-M   'P 1'
_cell_length_a   4.26239460
_cell_length_b   5.59319024
_cell_length_c   6.72091931
_cell_angle_alpha   114.69686091
_cell_angle_beta   108.48052382
_cell_angle_gamma   89.99953497
_symmetry_Int_Tables_number   1
_chemical_formula_structural   Sr2BiO5
_chemical_formula_sum   'Sr2 Bi1 O5'
_cell_volume   136.42591603
_cell_formula_units_Z   1
loop_
 _symmetry_equiv_pos_site_id
 _symmetry_equiv_pos_as_xyz
  1  'x, y, z'
loop_
 _atom_site_type_symbol
 _atom_site_label
 _atom_site_symmetry_multiplicity
 _atom_site_fract_x
 _atom_site_fract_y
 _atom_site_fract_z
 _atom_site_occupancy
  Sr  Sr0  1  0.52419516  0.58949913  0.13474150  1
  Sr  Sr1  1  0.87368382  0.93857900  0.83379746  1
  Bi  Bi2  1  0.19883953  0.26412526  0.48405533  1
  O  O3  1  0.05997313  0.37725943  0.20647867  1
  O  O4  1  0.05945487  0.87347646  0.20526610  1
  O  O5  1  0.33751570  0.15107055  0.76153928  1
  O  O6  1  0.69818492  0.26453870  0.48282807  1
  O  O7  1  0.33844702  0.65471166  0.76315478  1
