# generated using pymatgen
data_Sr2InAu
_symmetry_space_group_name_H-M   'P 1'
_cell_length_a   5.62392197
_cell_length_b   5.62397290
_cell_length_c   5.62316577
_cell_angle_alpha   59.77860695
_cell_angle_beta   59.76303076
_cell_angle_gamma   59.77474985
_symmetry_Int_Tables_number   1
_chemical_formula_structural   Sr2InAu
_chemical_formula_sum   'Sr2 In1 Au1'
_cell_volume   125.11103320
_cell_formula_units_Z   1
loop_
 _symmetry_equiv_pos_site_id
 _symmetry_equiv_pos_as_xyz
  1  'x, y, z'
loop_
 _atom_site_type_symbol
 _atom_site_label
 _atom_site_symmetry_multiplicity
 _atom_site_fract_x
 _atom_site_fract_y
 _atom_site_fract_z
 _atom_site_occupancy
  Sr  Sr0  1  0.55837711  0.30371133  0.62974629  1
  Sr  Sr1  1  0.05945451  0.80400137  0.12989124  1
  In  In2  1  0.30932025  0.05333692  0.37993601  1
  Au  Au3  1  0.80892210  0.55248987  0.87912626  1
