# generated using pymatgen
data_Sr2Os2O7
_symmetry_space_group_name_H-M   'P 1'
_cell_length_a   3.79142702
_cell_length_b   6.32846807
_cell_length_c   6.39824642
_cell_angle_alpha   93.23487606
_cell_angle_beta   89.59178564
_cell_angle_gamma   89.93983735
_symmetry_Int_Tables_number   1
_chemical_formula_structural   Sr2Os2O7
_chemical_formula_sum   'Sr2 Os2 O7'
_cell_volume   153.27037419
_cell_formula_units_Z   1
loop_
 _symmetry_equiv_pos_site_id
 _symmetry_equiv_pos_as_xyz
  1  'x, y, z'
loop_
 _atom_site_type_symbol
 _atom_site_label
 _atom_site_symmetry_multiplicity
 _atom_site_fract_x
 _atom_site_fract_y
 _atom_site_fract_z
 _atom_site_occupancy
  Sr  Sr0  1  0.20719151  0.91679174  0.06425753  1
  Sr  Sr1  1  0.21895239  0.52084613  0.44794514  1
  Os  Os2  1  0.71441243  0.08631164  0.53546970  1
  Os  Os3  1  0.71138824  0.35160672  0.97843568  1
  O  O4  1  0.21456718  0.09230779  0.52764093  1
  O  O5  1  0.71304704  0.21892760  0.25709091  1
  O  O6  1  0.71213806  0.04437714  0.84117106  1
  O  O7  1  0.71895986  0.79046534  0.45379849  1
  O  O8  1  0.21132198  0.34571766  0.98628148  1
  O  O9  1  0.70643680  0.64735987  0.06219021  1
  O  O10  1  0.71393686  0.39363915  0.67278699  1
