# generated using pymatgen
data_SrAgO2
_symmetry_space_group_name_H-M   'P 1'
_cell_length_a   3.39753185
_cell_length_b   3.85424593
_cell_length_c   5.64873040
_cell_angle_alpha   81.54750600
_cell_angle_beta   72.55021798
_cell_angle_gamma   63.79303205
_symmetry_Int_Tables_number   1
_chemical_formula_structural   SrAgO2
_chemical_formula_sum   'Sr1 Ag1 O2'
_cell_volume   63.30263692
_cell_formula_units_Z   1
loop_
 _symmetry_equiv_pos_site_id
 _symmetry_equiv_pos_as_xyz
  1  'x, y, z'
loop_
 _atom_site_type_symbol
 _atom_site_label
 _atom_site_symmetry_multiplicity
 _atom_site_fract_x
 _atom_site_fract_y
 _atom_site_fract_z
 _atom_site_occupancy
  Sr  Sr0  1  0.34621242  0.42592409  0.53834032  1
  Ag  Ag1  1  0.84772103  0.92513805  0.03834010  1
  O  O2  1  0.53676711  0.79458328  0.79063011  1
  O  O3  1  0.15774462  0.05705519  0.28590990  1
