# generated using pymatgen
data_SrAsPd
_symmetry_space_group_name_H-M   'P 1'
_cell_length_a   4.47109377
_cell_length_b   4.47034919
_cell_length_c   7.19129805
_cell_angle_alpha   90.00170264
_cell_angle_beta   90.01418737
_cell_angle_gamma   90.00360040
_symmetry_Int_Tables_number   1
_chemical_formula_structural   SrAsPd
_chemical_formula_sum   'Sr2 As2 Pd2'
_cell_volume   143.73498948
_cell_formula_units_Z   2
loop_
 _symmetry_equiv_pos_site_id
 _symmetry_equiv_pos_as_xyz
  1  'x, y, z'
loop_
 _atom_site_type_symbol
 _atom_site_label
 _atom_site_symmetry_multiplicity
 _atom_site_fract_x
 _atom_site_fract_y
 _atom_site_fract_z
 _atom_site_occupancy
  Sr  Sr0  1  0.10124010  0.70045054  0.33536912  1
  Sr  Sr1  1  0.60162424  0.20049599  0.96849072  1
  As  As2  1  0.10161931  0.70043984  0.84992816  1
  As  As3  1  0.60124155  0.20058774  0.45239671  1
  Pd  Pd4  1  0.10168014  0.20047535  0.65203717  1
  Pd  Pd5  1  0.60116810  0.70046672  0.65198624  1
