# generated using pymatgen
data_SrH3ClF3
_symmetry_space_group_name_H-M   'P 1'
_cell_length_a   4.47822252
_cell_length_b   5.44533010
_cell_length_c   4.61866194
_cell_angle_alpha   74.17457535
_cell_angle_beta   90.55670344
_cell_angle_gamma   66.43070047
_symmetry_Int_Tables_number   1
_chemical_formula_structural   SrH3ClF3
_chemical_formula_sum   'Sr1 H3 Cl1 F3'
_cell_volume   98.41456952
_cell_formula_units_Z   1
loop_
 _symmetry_equiv_pos_site_id
 _symmetry_equiv_pos_as_xyz
  1  'x, y, z'
loop_
 _atom_site_type_symbol
 _atom_site_label
 _atom_site_symmetry_multiplicity
 _atom_site_fract_x
 _atom_site_fract_y
 _atom_site_fract_z
 _atom_site_occupancy
  Sr  Sr0  1  0.94037744  0.22462412  0.45086582  1
  H  H1  1  0.17608751  0.75106225  0.08703252  1
  H  H2  1  0.36072770  0.38149530  0.90262238  1
  H  H3  1  0.68948980  0.72521268  0.05293405  1
  Cl  Cl4  1  0.67464086  0.75734452  0.58366165  1
  F  F5  1  0.31747937  0.46324871  0.14300930  1
  F  F6  1  0.07115603  0.96735109  0.03484769  1
  F  F7  1  0.40380142  0.29938346  0.72220017  1
