# generated using pymatgen
data_SrLiEu2
_symmetry_space_group_name_H-M   'P 1'
_cell_length_a   6.16784882
_cell_length_b   6.18952091
_cell_length_c   6.17405236
_cell_angle_alpha   60.00363640
_cell_angle_beta   59.71886737
_cell_angle_gamma   59.95994334
_symmetry_Int_Tables_number   1
_chemical_formula_structural   SrLiEu2
_chemical_formula_sum   'Sr1 Li1 Eu2'
_cell_volume   166.26300293
_cell_formula_units_Z   1
loop_
 _symmetry_equiv_pos_site_id
 _symmetry_equiv_pos_as_xyz
  1  'x, y, z'
loop_
 _atom_site_type_symbol
 _atom_site_label
 _atom_site_symmetry_multiplicity
 _atom_site_fract_x
 _atom_site_fract_y
 _atom_site_fract_z
 _atom_site_occupancy
  Sr  Sr0  1  0.47302188  0.33539401  0.40537502  1
  Li  Li1  1  0.72414496  0.58534339  0.65582550  1
  Eu  Eu2  1  0.97251363  0.83441490  0.90580684  1
  Eu  Eu3  1  0.22336107  0.08482096  0.15522364  1
