# generated using pymatgen
data_SrNbP3
_symmetry_space_group_name_H-M   'P 1'
_cell_length_a   4.87866411
_cell_length_b   4.88099587
_cell_length_c   4.88552163
_cell_angle_alpha   90.02560312
_cell_angle_beta   89.88493751
_cell_angle_gamma   90.08024622
_symmetry_Int_Tables_number   1
_chemical_formula_structural   SrNbP3
_chemical_formula_sum   'Sr1 Nb1 P3'
_cell_volume   116.33729314
_cell_formula_units_Z   1
loop_
 _symmetry_equiv_pos_site_id
 _symmetry_equiv_pos_as_xyz
  1  'x, y, z'
loop_
 _atom_site_type_symbol
 _atom_site_label
 _atom_site_symmetry_multiplicity
 _atom_site_fract_x
 _atom_site_fract_y
 _atom_site_fract_z
 _atom_site_occupancy
  Sr  Sr0  1  0.22993293  0.90704992  0.75160367  1
  Nb  Nb1  1  0.73007912  0.40724163  0.25193433  1
  P  P2  1  0.72992339  0.40828546  0.75183242  1
  P  P3  1  0.73047166  0.90787959  0.25185554  1
  P  P4  1  0.22988988  0.40826211  0.25176381  1
