# generated using pymatgen
data_SrSbTe3
_symmetry_space_group_name_H-M   'P 1'
_cell_length_a   7.00274231
_cell_length_b   6.92328833
_cell_length_c   5.32770231
_cell_angle_alpha   90.09138541
_cell_angle_beta   89.95616350
_cell_angle_gamma   52.96862373
_symmetry_Int_Tables_number   1
_chemical_formula_structural   SrSbTe3
_chemical_formula_sum   'Sr1 Sb1 Te3'
_cell_volume   206.19980274
_cell_formula_units_Z   1
loop_
 _symmetry_equiv_pos_site_id
 _symmetry_equiv_pos_as_xyz
  1  'x, y, z'
loop_
 _atom_site_type_symbol
 _atom_site_label
 _atom_site_symmetry_multiplicity
 _atom_site_fract_x
 _atom_site_fract_y
 _atom_site_fract_z
 _atom_site_occupancy
  Sr  Sr0  1  0.56939737  0.18361706  0.26671436  1
  Sb  Sb1  1  0.24336592  -0.00651700  0.76580637  1
  Te  Te2  1  0.30033509  0.55864704  0.76670279  1
  Te  Te3  1  0.73380326  -0.18446075  0.76688705  1
  Te  Te4  1  0.04959468  0.20139480  0.26636130  1
