# generated using pymatgen
data_SrSmS2
_symmetry_space_group_name_H-M   'P 1'
_cell_length_a   4.11822957
_cell_length_b   4.12188273
_cell_length_c   5.83057877
_cell_angle_alpha   89.99482025
_cell_angle_beta   90.00452668
_cell_angle_gamma   89.99754447
_symmetry_Int_Tables_number   1
_chemical_formula_structural   SrSmS2
_chemical_formula_sum   'Sr1 Sm1 S2'
_cell_volume   98.97325365
_cell_formula_units_Z   1
loop_
 _symmetry_equiv_pos_site_id
 _symmetry_equiv_pos_as_xyz
  1  'x, y, z'
loop_
 _atom_site_type_symbol
 _atom_site_label
 _atom_site_symmetry_multiplicity
 _atom_site_fract_x
 _atom_site_fract_y
 _atom_site_fract_z
 _atom_site_occupancy
  Sr  Sr0  1  0.75594923  0.98421299  0.40334886  1
  Sm  Sm1  1  0.25600856  0.48358697  0.90445176  1
  S  S2  1  0.25622117  0.48434975  0.40389519  1
  S  S3  1  0.75632459  0.98345649  0.90346459  1
