# generated using pymatgen
data_SrZr4O6F7
_symmetry_space_group_name_H-M   'P 1'
_cell_length_a   5.74213321
_cell_length_b   5.69469845
_cell_length_c   8.42790828
_cell_angle_alpha   97.29301398
_cell_angle_beta   97.17040540
_cell_angle_gamma   87.79728650
_symmetry_Int_Tables_number   1
_chemical_formula_structural   SrZr4O6F7
_chemical_formula_sum   'Sr1 Zr4 O6 F7'
_cell_volume   271.15134259
_cell_formula_units_Z   1
loop_
 _symmetry_equiv_pos_site_id
 _symmetry_equiv_pos_as_xyz
  1  'x, y, z'
loop_
 _atom_site_type_symbol
 _atom_site_label
 _atom_site_symmetry_multiplicity
 _atom_site_fract_x
 _atom_site_fract_y
 _atom_site_fract_z
 _atom_site_occupancy
  Sr  Sr0  1  0.50823847  0.97613257  0.40079822  1
  Zr  Zr1  1  0.56097148  0.52122931  0.66554846  1
  Zr  Zr2  1  0.96051773  0.90987540  0.15442023  1
  Zr  Zr3  1  0.47393255  0.42779617  0.10497077  1
  Zr  Zr4  1  0.06886854  0.03083947  0.69696383  1
  O  O5  1  0.72646382  0.68057624  0.19468191  1
  O  O6  1  0.57301692  0.50939195  0.89615359  1
  O  O7  1  0.34080433  0.81154145  0.64661284  1
  O  O8  1  0.24529167  0.69189066  0.16896233  1
  O  O9  1  0.69259374  0.15348399  0.16306401  1
  O  O10  1  0.78041085  0.22551432  0.63744421  1
  F  F11  1  0.27801723  0.28382191  0.60964422  1
  F  F12  1  0.22118917  0.23729603  0.90095648  1
  F  F13  1  0.51112940  0.46163622  0.40334216  1
  F  F14  1  0.02576248  0.97610747  0.41214412  1
  F  F15  1  0.95753052  0.89351427  0.90352344  1
  F  F16  1  0.22174905  0.18365533  0.19498926  1
  F  F17  1  0.82650885  0.74050873  0.61420534  1
