# generated using pymatgen
data_Ta2BC
_symmetry_space_group_name_H-M   'P 1'
_cell_length_a   3.21122553
_cell_length_b   3.21418185
_cell_length_c   4.52140963
_cell_angle_alpha   90.01631713
_cell_angle_beta   89.98553886
_cell_angle_gamma   89.99430863
_symmetry_Int_Tables_number   1
_chemical_formula_structural   Ta2BC
_chemical_formula_sum   'Ta2 B1 C1'
_cell_volume   46.66755778
_cell_formula_units_Z   1
loop_
 _symmetry_equiv_pos_site_id
 _symmetry_equiv_pos_as_xyz
  1  'x, y, z'
loop_
 _atom_site_type_symbol
 _atom_site_label
 _atom_site_symmetry_multiplicity
 _atom_site_fract_x
 _atom_site_fract_y
 _atom_site_fract_z
 _atom_site_occupancy
  Ta  Ta0  1  0.16968252  0.76174720  0.41469876  1
  Ta  Ta1  1  0.66992587  0.26136672  0.91509626  1
  B  B2  1  0.66966730  0.26176352  0.41513423  1
  C  C3  1  0.16989901  0.76137914  0.91481989  1
