# generated using pymatgen
data_TaCrRu2
_symmetry_space_group_name_H-M   'P 1'
_cell_length_a   4.37626232
_cell_length_b   4.38130044
_cell_length_c   4.38399818
_cell_angle_alpha   60.10847712
_cell_angle_beta   60.07442037
_cell_angle_gamma   60.12338810
_symmetry_Int_Tables_number   1
_chemical_formula_structural   TaCrRu2
_chemical_formula_sum   'Ta1 Cr1 Ru2'
_cell_volume   59.57513813
_cell_formula_units_Z   1
loop_
 _symmetry_equiv_pos_site_id
 _symmetry_equiv_pos_as_xyz
  1  'x, y, z'
loop_
 _atom_site_type_symbol
 _atom_site_label
 _atom_site_symmetry_multiplicity
 _atom_site_fract_x
 _atom_site_fract_y
 _atom_site_fract_z
 _atom_site_occupancy
  Ta  Ta0  1  0.74368608  0.65071531  0.14642385  1
  Cr  Cr1  1  0.24342648  0.15101847  0.64608309  1
  Ru  Ru2  1  0.49376052  0.40098588  0.89642317  1
  Ru  Ru3  1  0.99338372  0.90100664  0.39683141  1
