# generated using pymatgen
data_TaNb5AsSeSO3
_symmetry_space_group_name_H-M   'P 1'
_cell_length_a   3.50331667
_cell_length_b   3.50314279
_cell_length_c   19.97746177
_cell_angle_alpha   87.36436215
_cell_angle_beta   92.60327652
_cell_angle_gamma   127.37508734
_symmetry_Int_Tables_number   1
_chemical_formula_structural   TaNb5AsSeSO3
_chemical_formula_sum   'Ta1 Nb5 As1 Se1 S1 O3'
_cell_volume   194.58250807
_cell_formula_units_Z   1
loop_
 _symmetry_equiv_pos_site_id
 _symmetry_equiv_pos_as_xyz
  1  'x, y, z'
loop_
 _atom_site_type_symbol
 _atom_site_label
 _atom_site_symmetry_multiplicity
 _atom_site_fract_x
 _atom_site_fract_y
 _atom_site_fract_z
 _atom_site_occupancy
  Ta  Ta0  1  0.09193538  0.21652822  0.23837000  1
  Nb  Nb1  1  0.39648236  0.91429836  0.99602016  1
  Nb  Nb2  1  0.73417797  0.57062646  0.65235559  1
  Nb  Nb3  1  0.43743503  0.86986623  0.35081365  1
  Nb  Nb4  1  0.06887373  0.23718926  0.46367262  1
  Nb  Nb5  1  0.80918517  0.50091017  0.11424419  1
  As  As6  1  0.40395343  0.90096387  0.55843060  1
  Se  Se7  1  0.42765652  0.87662356  0.73860406  1
  S  S8  1  0.69876194  0.61255300  0.92124826  1
  O  O9  1  0.75520772  0.55092502  0.41100839  1
  O  O10  1  0.51744897  0.79188588  0.16522871  1
  O  O11  1  0.10585387  0.20440630  0.06311752  1
