# generated using pymatgen
data_Tb2DyY
_symmetry_space_group_name_H-M   'P 1'
_cell_length_a   5.03751398
_cell_length_b   5.03451934
_cell_length_c   5.03550183
_cell_angle_alpha   90.00446326
_cell_angle_beta   89.99918812
_cell_angle_gamma   90.00512811
_symmetry_Int_Tables_number   1
_chemical_formula_structural   Tb2DyY
_chemical_formula_sum   'Tb2 Dy1 Y1'
_cell_volume   127.70768523
_cell_formula_units_Z   1
loop_
 _symmetry_equiv_pos_site_id
 _symmetry_equiv_pos_as_xyz
  1  'x, y, z'
loop_
 _atom_site_type_symbol
 _atom_site_label
 _atom_site_symmetry_multiplicity
 _atom_site_fract_x
 _atom_site_fract_y
 _atom_site_fract_z
 _atom_site_occupancy
  Tb  Tb0  1  0.76827569  0.69540119  0.59237705  1
  Tb  Tb1  1  0.76833425  0.19563869  0.09275932  1
  Dy  Dy2  1  0.26829062  0.19581903  0.59228775  1
  Y  Y3  1  0.26829176  0.69533734  0.09297782  1
