# generated using pymatgen
data_Tb3FeSi6
_symmetry_space_group_name_H-M   'P 1'
_cell_length_a   3.96536723
_cell_length_b   4.04248804
_cell_length_c   11.50023667
_cell_angle_alpha   89.88801381
_cell_angle_beta   90.00586489
_cell_angle_gamma   90.01619194
_symmetry_Int_Tables_number   1
_chemical_formula_structural   Tb3FeSi6
_chemical_formula_sum   'Tb3 Fe1 Si6'
_cell_volume   184.34785383
_cell_formula_units_Z   1
loop_
 _symmetry_equiv_pos_site_id
 _symmetry_equiv_pos_as_xyz
  1  'x, y, z'
loop_
 _atom_site_type_symbol
 _atom_site_label
 _atom_site_symmetry_multiplicity
 _atom_site_fract_x
 _atom_site_fract_y
 _atom_site_fract_z
 _atom_site_occupancy
  Tb  Tb0  1  0.62314391  0.43560254  0.57266729  1
  Tb  Tb1  1  0.12382022  0.43486583  0.87414451  1
  Tb  Tb2  1  0.12265169  0.43741234  0.27725758  1
  Fe  Fe3  1  0.62454591  0.93037153  -0.01742686  1
  Si  Si4  1  0.62246721  0.93753094  0.35370147  1
  Si  Si5  1  0.12266566  0.93627439  0.47251718  1
  Si  Si6  1  0.12431150  0.93777710  0.07704678  1
  Si  Si7  1  0.62316753  0.42993222  0.07724894  1
  Si  Si8  1  0.62391010  0.93526156  0.79054521  1
  Si  Si9  1  0.12360229  0.93469361  0.67424010  1
