# generated using pymatgen
data_Tb4Ga11Cu
_symmetry_space_group_name_H-M   'P 1'
_cell_length_a   4.17752519
_cell_length_b   7.05500749
_cell_length_c   10.98336625
_cell_angle_alpha   103.10838263
_cell_angle_beta   89.99389680
_cell_angle_gamma   89.98085021
_symmetry_Int_Tables_number   1
_chemical_formula_structural   Tb4Ga11Cu
_chemical_formula_sum   'Tb4 Ga11 Cu1'
_cell_volume   315.27202810
_cell_formula_units_Z   1
loop_
 _symmetry_equiv_pos_site_id
 _symmetry_equiv_pos_as_xyz
  1  'x, y, z'
loop_
 _atom_site_type_symbol
 _atom_site_label
 _atom_site_symmetry_multiplicity
 _atom_site_fract_x
 _atom_site_fract_y
 _atom_site_fract_z
 _atom_site_occupancy
  Tb  Tb0  1  0.21211134  0.43625464  0.22855594  1
  Tb  Tb1  1  0.71214361  0.88190518  0.51965415  1
  Tb  Tb2  1  0.71225018  0.44485843  0.72942103  1
  Tb  Tb3  1  0.21217706  0.87190343  0.02598222  1
  Ga  Ga4  1  0.71209657  0.38936740  0.43406906  1
  Ga  Ga5  1  0.71223779  0.56706118  0.01833351  1
  Ga  Ga6  1  0.21221015  0.36659771  0.93465828  1
  Ga  Ga7  1  0.21223632  0.12021204  0.72077876  1
  Ga  Ga8  1  0.71200813  0.10492636  0.24274711  1
  Ga  Ga9  1  0.71191313  0.74496259  0.24126255  1
  Ga  Ga10  1  0.21227557  0.75159858  0.73994365  1
  Ga  Ga11  1  0.21230616  0.57821380  0.51837738  1
  Ga  Ga12  1  0.71217099  0.19781352  0.03266525  1
  Ga  Ga13  1  0.71230011  0.95422842  0.81861710  1
  Ga  Ga14  1  0.21225258  0.19214230  0.50378371  1
  Cu  Cu15  1  0.21186041  0.93817246  0.30825160  1
