# generated using pymatgen
data_Tb4TeI3
_symmetry_space_group_name_H-M   'P 1'
_cell_length_a   4.03913738
_cell_length_b   4.03898068
_cell_length_c   23.32433252
_cell_angle_alpha   69.89458959
_cell_angle_beta   69.88222051
_cell_angle_gamma   59.97826482
_symmetry_Int_Tables_number   1
_chemical_formula_structural   Tb4TeI3
_chemical_formula_sum   'Tb4 Te1 I3'
_cell_volume   302.38618484
_cell_formula_units_Z   1
loop_
 _symmetry_equiv_pos_site_id
 _symmetry_equiv_pos_as_xyz
  1  'x, y, z'
loop_
 _atom_site_type_symbol
 _atom_site_label
 _atom_site_symmetry_multiplicity
 _atom_site_fract_x
 _atom_site_fract_y
 _atom_site_fract_z
 _atom_site_occupancy
  Tb  Tb0  1  0.29658602  0.56652493  0.37372945  1
  Tb  Tb1  1  0.79374205  0.08144113  0.75580423  1
  Tb  Tb2  1  0.77154839  0.05562772  0.02731819  1
  Tb  Tb3  1  0.29154609  0.58045133  0.88438648  1
  Te  Te4  1  0.32571005  0.60938085  0.11234319  1
  I  I5  1  0.75401871  0.02344694  0.28014721  1
  I  I6  1  0.25872289  0.54542163  0.65611779  1
  I  I7  1  0.83833739  0.10876605  0.46788291  1
