# generated using pymatgen
data_Tb5Al2Pd5
_symmetry_space_group_name_H-M   'P 1'
_cell_length_a   4.12912858
_cell_length_b   7.15718307
_cell_length_c   9.36493245
_cell_angle_alpha   90.15198440
_cell_angle_beta   90.00419592
_cell_angle_gamma   106.78251039
_symmetry_Int_Tables_number   1
_chemical_formula_structural   Tb5Al2Pd5
_chemical_formula_sum   'Tb5 Al2 Pd5'
_cell_volume   264.97225054
_cell_formula_units_Z   1
loop_
 _symmetry_equiv_pos_site_id
 _symmetry_equiv_pos_as_xyz
  1  'x, y, z'
loop_
 _atom_site_type_symbol
 _atom_site_label
 _atom_site_symmetry_multiplicity
 _atom_site_fract_x
 _atom_site_fract_y
 _atom_site_fract_z
 _atom_site_occupancy
  Tb  Tb0  1  0.79645069  0.56547078  0.00798832  1
  Tb  Tb1  1  0.63140535  0.23451042  0.72862229  1
  Tb  Tb2  1  0.62967411  0.23125497  0.28469353  1
  Tb  Tb3  1  0.91632677  0.80430757  0.70578510  1
  Tb  Tb4  1  0.91470912  0.80125717  0.31136901  1
  Al  Al5  1  0.09556093  0.16279337  0.00698424  1
  Al  Al6  1  0.28329085  0.53856841  0.50829217  1
  Pd  Pd7  1  0.10256668  0.17655263  0.50662351  1
  Pd  Pd8  1  0.48582034  0.94271259  0.00580179  1
  Pd  Pd9  1  0.26869300  0.50890911  0.22532276  1
  Pd  Pd10  1  0.26992028  0.51148457  0.79109129  1
  Pd  Pd11  1  0.47002714  0.91202643  0.50786903  1
