# generated using pymatgen
data_Te2Mo4WSeS4
_symmetry_space_group_name_H-M   'P 1'
_cell_length_a   3.23796096
_cell_length_b   3.23805782
_cell_length_c   37.16688414
_cell_angle_alpha   90.79419087
_cell_angle_beta   90.01735855
_cell_angle_gamma   120.00314309
_symmetry_Int_Tables_number   1
_chemical_formula_structural   Te2Mo4WSeS4
_chemical_formula_sum   'Te2 Mo4 W1 Se1 S4'
_cell_volume   337.42119538
_cell_formula_units_Z   1
loop_
 _symmetry_equiv_pos_site_id
 _symmetry_equiv_pos_as_xyz
  1  'x, y, z'
loop_
 _atom_site_type_symbol
 _atom_site_label
 _atom_site_symmetry_multiplicity
 _atom_site_fract_x
 _atom_site_fract_y
 _atom_site_fract_z
 _atom_site_occupancy
  Te  Te0  1  0.69128724  0.91496967  0.86809691  1
  Te  Te1  1  0.67934256  0.89560689  0.75942157  1
  Mo  Mo2  1  0.33967844  0.21872128  0.70270461  1
  Mo  Mo3  1  0.32874174  0.19515459  0.61008032  1
  Mo  Mo4  1  0.35210866  0.23735295  0.81553157  1
  Mo  Mo5  1  0.39300079  0.32252528  0.20072724  1
  W  W6  1  0.70983902  0.95273582  0.01655577  1
  Se  Se7  1  0.66714109  0.87219051  0.65398987  1
  S  S8  1  0.73096531  0.99801854  0.24223450  1
  S  S9  1  0.37177720  0.27707139  0.97485707  1
  S  S10  1  0.38101357  0.29469515  0.05829063  1
  S  S11  1  0.72177594  0.98048935  0.15924904  1
