# generated using pymatgen
data_Te4Mo3WS2
_symmetry_space_group_name_H-M   'P 1'
_cell_length_a   3.34684528
_cell_length_b   3.34746710
_cell_length_c   31.58948639
_cell_angle_alpha   90.07426743
_cell_angle_beta   90.06715427
_cell_angle_gamma   119.99841770
_symmetry_Int_Tables_number   1
_chemical_formula_structural   Te4Mo3WS2
_chemical_formula_sum   'Te4 Mo3 W1 S2'
_cell_volume   306.50019177
_cell_formula_units_Z   1
loop_
 _symmetry_equiv_pos_site_id
 _symmetry_equiv_pos_as_xyz
  1  'x, y, z'
loop_
 _atom_site_type_symbol
 _atom_site_label
 _atom_site_symmetry_multiplicity
 _atom_site_fract_x
 _atom_site_fract_y
 _atom_site_fract_z
 _atom_site_occupancy
  Te  Te0  1  0.49306852  0.74840789  0.87181567  1
  Te  Te1  1  0.17141049  0.09509463  0.33322393  1
  Te  Te2  1  0.49551060  0.75150577  0.99516815  1
  Te  Te3  1  0.51301475  0.76728944  0.46123097  1
  Mo  Mo4  1  0.82817749  0.41709396  0.93135193  1
  Mo  Mo5  1  0.82972918  0.41924274  0.05985952  1
  Mo  Mo6  1  0.84720612  0.43503380  0.51826624  1
  W  W7  1  0.50349668  0.76029342  0.27013050  1
  S  S8  1  0.49761392  0.75432128  0.10569356  1
  S  S9  1  0.83510231  0.42518321  0.22410525  1
