# generated using pymatgen
data_TeMoW3Se4S3
_symmetry_space_group_name_H-M   'P 1'
_cell_length_a   3.26712329
_cell_length_b   3.26719341
_cell_length_c   46.10904194
_cell_angle_alpha   91.05940660
_cell_angle_beta   89.14644060
_cell_angle_gamma   119.97896030
_symmetry_Int_Tables_number   1
_chemical_formula_structural   TeMoW3Se4S3
_chemical_formula_sum   'Te1 Mo1 W3 Se4 S3'
_cell_volume   426.25120653
_cell_formula_units_Z   1
loop_
 _symmetry_equiv_pos_site_id
 _symmetry_equiv_pos_as_xyz
  1  'x, y, z'
loop_
 _atom_site_type_symbol
 _atom_site_label
 _atom_site_symmetry_multiplicity
 _atom_site_fract_x
 _atom_site_fract_y
 _atom_site_fract_z
 _atom_site_occupancy
  Te  Te0  1  0.70597556  0.42308922  0.77811535  1
  Mo  Mo1  1  0.70478274  0.39477521  0.64851968  1
  W  W2  1  0.71319705  0.37772364  0.56795946  1
  W  W3  1  0.06859539  0.01530944  0.42098262  1
  W  W4  1  0.03464748  0.09830500  0.82025481  1
  Se  Se5  1  0.69719359  0.43931275  0.85683377  1
  Se  Se6  1  0.05052475  0.03686485  0.53145020  1
  Se  Se7  1  0.03457299  0.06915648  0.68454686  1
  Se  Se8  1  0.04220997  0.05267051  0.60736061  1
  S  S9  1  0.09248287  0.01932722  0.31276112  1
  S  S10  1  0.73139003  0.35554289  0.45434304  1
  S  S11  1  0.73903611  0.34188549  0.38754981  1
