# generated using pymatgen
data_Ti2Sb2SeS5I2
_symmetry_space_group_name_H-M   'P 1'
_cell_length_a   8.02340131
_cell_length_b   7.75405846
_cell_length_c   8.18920956
_cell_angle_alpha   93.68510391
_cell_angle_beta   89.96914048
_cell_angle_gamma   127.46495979
_symmetry_Int_Tables_number   1
_chemical_formula_structural   Ti2Sb2SeS5I2
_chemical_formula_sum   'Ti2 Sb2 Se1 S5 I2'
_cell_volume   403.07499264
_cell_formula_units_Z   1
loop_
 _symmetry_equiv_pos_site_id
 _symmetry_equiv_pos_as_xyz
  1  'x, y, z'
loop_
 _atom_site_type_symbol
 _atom_site_label
 _atom_site_symmetry_multiplicity
 _atom_site_fract_x
 _atom_site_fract_y
 _atom_site_fract_z
 _atom_site_occupancy
  Ti  Ti0  1  0.13818263  0.92796765  0.61709046  1
  Ti  Ti1  1  0.29103650  0.19562788  -0.03251792  1
  Sb  Sb2  1  0.75300093  0.63096037  0.26149258  1
  Sb  Sb3  1  0.61204338  0.70669076  0.90142364  1
  Se  Se4  1  0.92756927  0.01524355  0.11926979  1
  S  S5  1  0.22737601  0.87910338  0.87432818  1
  S  S6  1  0.40123401  0.53983982  0.15504577  1
  S  S7  1  0.20530602  0.26839502  0.74188338  1
  S  S8  1  0.67265324  0.43268698  0.93250874  1
  S  S9  1  0.81979917  0.83763858  0.54745380  1
  I  I10  1  0.05852325  0.55467942  0.49325608  1
  I  I11  1  0.42449699  0.13781044  0.38480822  1
