# generated using pymatgen
data_Ti3Al2Ni
_symmetry_space_group_name_H-M   'P 1'
_cell_length_a   2.90590246
_cell_length_b   2.90646736
_cell_length_c   11.06931973
_cell_angle_alpha   90.07528252
_cell_angle_beta   90.09115250
_cell_angle_gamma   90.03875337
_symmetry_Int_Tables_number   1
_chemical_formula_structural   Ti3Al2Ni
_chemical_formula_sum   'Ti3 Al2 Ni1'
_cell_volume   93.49026477
_cell_formula_units_Z   1
loop_
 _symmetry_equiv_pos_site_id
 _symmetry_equiv_pos_as_xyz
  1  'x, y, z'
loop_
 _atom_site_type_symbol
 _atom_site_label
 _atom_site_symmetry_multiplicity
 _atom_site_fract_x
 _atom_site_fract_y
 _atom_site_fract_z
 _atom_site_occupancy
  Ti  Ti0  1  0.87473426  0.33568390  0.89535988  1
  Ti  Ti1  1  0.37536584  0.83605964  0.07320575  1
  Ti  Ti2  1  0.87190046  0.33297672  0.60171669  1
  Al  Al3  1  0.37193758  0.83317417  0.43465892  1
  Al  Al4  1  0.87579318  0.33634516  0.25198612  1
  Ni  Ni5  1  0.37354521  0.83468339  0.75711104  1
