# generated using pymatgen
data_Ti3Tl
_symmetry_space_group_name_H-M   'P 1'
_cell_length_a   2.96402807
_cell_length_b   2.96402543
_cell_length_c   8.61359383
_cell_angle_alpha   90.00288051
_cell_angle_beta   90.00916590
_cell_angle_gamma   90.12534643
_symmetry_Int_Tables_number   1
_chemical_formula_structural   Ti3Tl
_chemical_formula_sum   'Ti3 Tl1'
_cell_volume   75.67415526
_cell_formula_units_Z   1
loop_
 _symmetry_equiv_pos_site_id
 _symmetry_equiv_pos_as_xyz
  1  'x, y, z'
loop_
 _atom_site_type_symbol
 _atom_site_label
 _atom_site_symmetry_multiplicity
 _atom_site_fract_x
 _atom_site_fract_y
 _atom_site_fract_z
 _atom_site_occupancy
  Ti  Ti0  1  0.32646580  0.26631428  0.49196399  1
  Ti  Ti1  1  0.82707326  0.76638022  0.72265659  1
  Ti  Ti2  1  0.32739673  0.26657743  0.95371725  1
  Tl  Tl3  1  0.82664385  0.76653477  0.22299964  1
