# generated using pymatgen
data_Ti4AlAsRh3CO2
_symmetry_space_group_name_H-M   'P 1'
_cell_length_a   3.19840361
_cell_length_b   4.31691614
_cell_length_c   12.73381752
_cell_angle_alpha   92.66468545
_cell_angle_beta   88.61423547
_cell_angle_gamma   88.37448791
_symmetry_Int_Tables_number   1
_chemical_formula_structural   Ti4AlAsRh3CO2
_chemical_formula_sum   'Ti4 Al1 As1 Rh3 C1 O2'
_cell_volume   175.50082223
_cell_formula_units_Z   1
loop_
 _symmetry_equiv_pos_site_id
 _symmetry_equiv_pos_as_xyz
  1  'x, y, z'
loop_
 _atom_site_type_symbol
 _atom_site_label
 _atom_site_symmetry_multiplicity
 _atom_site_fract_x
 _atom_site_fract_y
 _atom_site_fract_z
 _atom_site_occupancy
  Ti  Ti0  1  0.19390294  -0.05210032  0.63178623  1
  Ti  Ti1  1  0.21480886  0.68541069  0.07617864  1
  Ti  Ti2  1  0.22803571  0.66962156  0.32882220  1
  Ti  Ti3  1  0.70607263  0.63850772  0.80111193  1
  Al  Al4  1  0.73869291  0.16923484  0.96587528  1
  As  As5  1  0.70701517  -0.04618083  0.47230389  1
  Rh  Rh6  1  0.25197336  0.15286011  0.82026502  1
  Rh  Rh7  1  0.83132388  0.28376445  0.14780764  1
  Rh  Rh8  1  0.71411871  0.45436414  0.58762881  1
  C  C9  1  0.21185997  0.46530354  0.69115066  1
  O  O10  1  0.73757218  0.44221629  0.31220770  1
  O  O11  1  0.21647633  -0.09482952  0.21248529  1
