# generated using pymatgen
data_TiCo2Ge
_symmetry_space_group_name_H-M   'P 1'
_cell_length_a   3.57158503
_cell_length_b   3.57703166
_cell_length_c   4.66258297
_cell_angle_alpha   112.54031295
_cell_angle_beta   112.54439853
_cell_angle_gamma   89.96520603
_symmetry_Int_Tables_number   1
_chemical_formula_structural   TiCo2Ge
_chemical_formula_sum   'Ti1 Co2 Ge1'
_cell_volume   50.05945330
_cell_formula_units_Z   1
loop_
 _symmetry_equiv_pos_site_id
 _symmetry_equiv_pos_as_xyz
  1  'x, y, z'
loop_
 _atom_site_type_symbol
 _atom_site_label
 _atom_site_symmetry_multiplicity
 _atom_site_fract_x
 _atom_site_fract_y
 _atom_site_fract_z
 _atom_site_occupancy
  Ti  Ti0  1  0.42727877  0.91458410  0.56155740  1
  Co  Co1  1  0.92699497  0.41429687  0.56116299  1
  Co  Co2  1  0.67743930  0.66496861  0.06151818  1
  Ge  Ge3  1  0.17748595  0.16508230  0.06184300  1
