# generated using pymatgen
data_TiCrFeCo4CuCSeS5
_symmetry_space_group_name_H-M   'P 1'
_cell_length_a   3.60093202
_cell_length_b   3.60030631
_cell_length_c   21.13027483
_cell_angle_alpha   84.97762623
_cell_angle_beta   94.91942220
_cell_angle_gamma   119.97103530
_symmetry_Int_Tables_number   1
_chemical_formula_structural   TiCrFeCo4CuCSeS5
_chemical_formula_sum   'Ti1 Cr1 Fe1 Co4 Cu1 C1 Se1 S5'
_cell_volume   236.11887104
_cell_formula_units_Z   1
loop_
 _symmetry_equiv_pos_site_id
 _symmetry_equiv_pos_as_xyz
  1  'x, y, z'
loop_
 _atom_site_type_symbol
 _atom_site_label
 _atom_site_symmetry_multiplicity
 _atom_site_fract_x
 _atom_site_fract_y
 _atom_site_fract_z
 _atom_site_occupancy
  Ti  Ti0  1  0.09773082  0.61985295  0.90357318  1
  Cr  Cr1  1  0.97250394  0.75146581  0.53014682  1
  Fe  Fe2  1  0.61572000  0.10965516  0.45928524  1
  Co  Co3  1  0.31940859  0.40372832  0.57121293  1
  Co  Co4  1  0.50824350  0.20612275  0.15328153  1
  Co  Co5  1  0.19869890  0.51355037  0.22709538  1
  Co  Co6  1  0.67653926  0.04541333  0.64273150  1
  Cu  Cu7  1  0.71939862  0.00123255  0.76901004  1
  C  C8  1  0.64588752  0.07760713  0.55062450  1
  Se  Se9  1  0.02550636  0.69562018  0.68952274  1
  S  S10  1  0.93690020  0.78933304  0.42217191  1
  S  S11  1  0.54177766  0.16989726  0.25648830  1
  S  S12  1  0.78165646  0.93341893  0.96380049  1
  S  S13  1  0.16514556  0.54968917  0.12388464  1
  S  S14  1  0.40325189  0.31388101  0.83040637  1
