# generated using pymatgen
data_TiSe2
_symmetry_space_group_name_H-M   'P 1'
_cell_length_a   3.55887225
_cell_length_b   8.39329768
_cell_length_c   10.40246476
_cell_angle_alpha   89.95692106
_cell_angle_beta   90.02284355
_cell_angle_gamma   89.97344894
_symmetry_Int_Tables_number   1
_chemical_formula_structural   TiSe2
_chemical_formula_sum   'Ti4 Se8'
_cell_volume   310.72848990
_cell_formula_units_Z   4
loop_
 _symmetry_equiv_pos_site_id
 _symmetry_equiv_pos_as_xyz
  1  'x, y, z'
loop_
 _atom_site_type_symbol
 _atom_site_label
 _atom_site_symmetry_multiplicity
 _atom_site_fract_x
 _atom_site_fract_y
 _atom_site_fract_z
 _atom_site_occupancy
  Ti  Ti0  1  0.18494137  0.86711557  0.58984697  1
  Ti  Ti1  1  0.18521767  0.38490179  0.09031851  1
  Ti  Ti2  1  0.68495247  0.63027257  0.36312270  1
  Ti  Ti3  1  0.68468066  0.62139162  0.86338331  1
  Se  Se4  1  0.68483083  0.62895726  0.09697165  1
  Se  Se5  1  0.18510920  0.41216625  0.33758214  1
  Se  Se6  1  0.18445403  0.83897230  0.83696272  1
  Se  Se7  1  0.18476393  0.84520801  0.33944542  1
  Se  Se8  1  0.18512758  0.40674476  0.84005407  1
  Se  Se9  1  0.68503620  0.62316761  0.59693287  1
  Se  Se10  1  0.68515331  0.18704021  0.08619285  1
  Se  Se11  1  0.68438337  0.06494282  0.58670178  1
