# generated using pymatgen
data_TlInN2
_symmetry_space_group_name_H-M   'P 1'
_cell_length_a   3.41752986
_cell_length_b   3.41952432
_cell_length_c   4.82680240
_cell_angle_alpha   90.06968595
_cell_angle_beta   90.05253775
_cell_angle_gamma   89.96484288
_symmetry_Int_Tables_number   1
_chemical_formula_structural   TlInN2
_chemical_formula_sum   'Tl1 In1 N2'
_cell_volume   56.40751270
_cell_formula_units_Z   1
loop_
 _symmetry_equiv_pos_site_id
 _symmetry_equiv_pos_as_xyz
  1  'x, y, z'
loop_
 _atom_site_type_symbol
 _atom_site_label
 _atom_site_symmetry_multiplicity
 _atom_site_fract_x
 _atom_site_fract_y
 _atom_site_fract_z
 _atom_site_occupancy
  Tl  Tl0  1  0.50265362  0.97687265  0.23048741  1
  In  In1  1  0.00182043  0.47699129  0.73053137  1
  N  N2  1  0.00242579  0.47634097  0.23066119  1
  N  N3  1  0.50093351  0.97613122  0.73059628  1
