# generated using pymatgen
data_Tm5BiTe5As
_symmetry_space_group_name_H-M   'P 1'
_cell_length_a   4.15065187
_cell_length_b   4.15072322
_cell_length_c   23.88353458
_cell_angle_alpha   89.77920095
_cell_angle_beta   90.22208703
_cell_angle_gamma   120.00524737
_symmetry_Int_Tables_number   1
_chemical_formula_structural   Tm5BiTe5As
_chemical_formula_sum   'Tm5 Bi1 Te5 As1'
_cell_volume   356.32149656
_cell_formula_units_Z   1
loop_
 _symmetry_equiv_pos_site_id
 _symmetry_equiv_pos_as_xyz
  1  'x, y, z'
loop_
 _atom_site_type_symbol
 _atom_site_label
 _atom_site_symmetry_multiplicity
 _atom_site_fract_x
 _atom_site_fract_y
 _atom_site_fract_z
 _atom_site_occupancy
  Tm  Tm0  1  0.81286977  0.01386578  0.47841696  1
  Tm  Tm1  1  0.80714958  0.01936940  0.02599798  1
  Tm  Tm2  1  0.47162599  0.35480667  0.86898686  1
  Tm  Tm3  1  0.47746107  0.34934813  0.31397012  1
  Tm  Tm4  1  0.14241332  0.68433476  0.18889579  1
  Bi  Bi5  1  0.14393390  0.68841442  0.67830759  1
  Te  Te6  1  0.80316889  0.02270883  0.79349568  1
  Te  Te7  1  0.14519504  0.68145239  0.39600405  1
  Te  Te8  1  0.13933344  0.68702069  0.94930687  1
  Te  Te9  1  0.47490274  0.35174906  0.10525310  1
  Te  Te10  1  0.48087304  0.34563139  0.55160836  1
  As  As11  1  0.80989896  0.01688954  0.25073020  1
