# generated using pymatgen
data_TmAgSn2
_symmetry_space_group_name_H-M   'P 1'
_cell_length_a   4.45968042
_cell_length_b   4.43879835
_cell_length_c   10.71015064
_cell_angle_alpha   90.00113294
_cell_angle_beta   65.37842119
_cell_angle_gamma   89.99990064
_symmetry_Int_Tables_number   1
_chemical_formula_structural   TmAgSn2
_chemical_formula_sum   'Tm2 Ag2 Sn4'
_cell_volume   192.73761697
_cell_formula_units_Z   2
loop_
 _symmetry_equiv_pos_site_id
 _symmetry_equiv_pos_as_xyz
  1  'x, y, z'
loop_
 _atom_site_type_symbol
 _atom_site_label
 _atom_site_symmetry_multiplicity
 _atom_site_fract_x
 _atom_site_fract_y
 _atom_site_fract_z
 _atom_site_occupancy
  Tm  Tm0  1  0.07515235  0.24141579  0.46820309  1
  Tm  Tm1  1  0.07586526  0.74100977  0.96779868  1
  Ag  Ag2  1  0.57252187  0.24072283  0.97126942  1
  Ag  Ag3  1  0.57736959  0.74165498  0.46615912  1
  Sn  Sn4  1  0.82474242  0.24076717  0.21870933  1
  Sn  Sn5  1  0.32474821  0.24145219  0.71833990  1
  Sn  Sn6  1  0.82560695  0.74153080  0.71784331  1
  Sn  Sn7  1  0.32625038  0.74071160  0.21754924  1
