# generated using pymatgen
data_TmAlZnAu3
_symmetry_space_group_name_H-M   'P 1'
_cell_length_a   4.48227753
_cell_length_b   4.48218802
_cell_length_c   6.44532393
_cell_angle_alpha   90.00859553
_cell_angle_beta   89.98932609
_cell_angle_gamma   120.00770222
_symmetry_Int_Tables_number   1
_chemical_formula_structural   TmAlZnAu3
_chemical_formula_sum   'Tm1 Al1 Zn1 Au3'
_cell_volume   112.13223364
_cell_formula_units_Z   1
loop_
 _symmetry_equiv_pos_site_id
 _symmetry_equiv_pos_as_xyz
  1  'x, y, z'
loop_
 _atom_site_type_symbol
 _atom_site_label
 _atom_site_symmetry_multiplicity
 _atom_site_fract_x
 _atom_site_fract_y
 _atom_site_fract_z
 _atom_site_occupancy
  Tm  Tm0  1  0.08777821  0.27210812  0.79434509  1
  Al  Al1  1  0.42095103  0.93871661  0.46366421  1
  Zn  Zn2  1  0.75431041  0.60531770  0.09788279  1
  Au  Au3  1  0.08749805  0.27189631  0.29692759  1
  Au  Au4  1  0.75434146  0.60537199  0.54772163  1
  Au  Au5  1  0.42093177  0.93870334  0.03563117  1
