# generated using pymatgen
data_TmIn
_symmetry_space_group_name_H-M   'P 1'
_cell_length_a   5.17358102
_cell_length_b   7.70723144
_cell_length_c   13.42983513
_cell_angle_alpha   98.08044404
_cell_angle_beta   89.93633635
_cell_angle_gamma   89.99267565
_symmetry_Int_Tables_number   1
_chemical_formula_structural   TmIn
_chemical_formula_sum   'Tm10 In10'
_cell_volume   530.18409403
_cell_formula_units_Z   10
loop_
 _symmetry_equiv_pos_site_id
 _symmetry_equiv_pos_as_xyz
  1  'x, y, z'
loop_
 _atom_site_type_symbol
 _atom_site_label
 _atom_site_symmetry_multiplicity
 _atom_site_fract_x
 _atom_site_fract_y
 _atom_site_fract_z
 _atom_site_occupancy
  Tm  Tm0  1  0.74305177  0.53089786  0.42362308  1
  Tm  Tm1  1  0.24375045  0.47093461  0.23130631  1
  Tm  Tm2  1  0.24339237  0.57463386  0.62306520  1
  Tm  Tm3  1  0.74573627  0.63170202  0.83283506  1
  Tm  Tm4  1  0.74380056  0.71148931  0.19381133  1
  Tm  Tm5  1  0.74563185  0.12510668  0.81377213  1
  Tm  Tm6  1  0.24355865  0.06797444  0.60410326  1
  Tm  Tm7  1  0.24373405  0.98778730  0.24284597  1
  Tm  Tm8  1  0.74378525  0.22858532  0.20563000  1
  Tm  Tm9  1  0.24400459  0.16854144  0.01317868  1
  In  In10  1  0.24316602  0.28630545  0.42416672  1
  In  In11  1  0.74344503  0.82534535  0.62120460  1
  In  In12  1  0.74391271  0.41316799  0.01255180  1
  In  In13  1  0.74404100  0.93528522  0.01709667  1
  In  In14  1  0.24404566  0.68613925  0.03325924  1
  In  In15  1  0.24306546  0.76423531  0.41968100  1
  In  In16  1  0.24557521  0.87429389  0.81541588  1
  In  In17  1  0.24558881  0.37574444  0.81662779  1
  In  In18  1  0.74340250  0.32414075  0.62021608  1
  In  In19  1  0.74340812  0.01317726  0.40349181  1
