# generated using pymatgen
data_TmMgZn2
_symmetry_space_group_name_H-M   'P 1'
_cell_length_a   4.77568245
_cell_length_b   4.77581551
_cell_length_c   4.78063592
_cell_angle_alpha   59.98248080
_cell_angle_beta   60.00616849
_cell_angle_gamma   59.95765231
_symmetry_Int_Tables_number   1
_chemical_formula_structural   TmMgZn2
_chemical_formula_sum   'Tm1 Mg1 Zn2'
_cell_volume   77.06855160
_cell_formula_units_Z   1
loop_
 _symmetry_equiv_pos_site_id
 _symmetry_equiv_pos_as_xyz
  1  'x, y, z'
loop_
 _atom_site_type_symbol
 _atom_site_label
 _atom_site_symmetry_multiplicity
 _atom_site_fract_x
 _atom_site_fract_y
 _atom_site_fract_z
 _atom_site_occupancy
  Tm  Tm0  1  0.89749212  0.88778755  0.35386436  1
  Mg  Mg1  1  0.64784072  0.63840675  0.10379974  1
  Zn  Zn2  1  0.39731059  0.38800943  0.85251413  1
  Zn  Zn3  1  0.14720608  0.13763980  0.60473225  1
