# generated using pymatgen
data_TmSiAu2
_symmetry_space_group_name_H-M   'P 1'
_cell_length_a   4.23320414
_cell_length_b   4.23820674
_cell_length_c   4.27563921
_cell_angle_alpha   89.99575251
_cell_angle_beta   90.02071242
_cell_angle_gamma   89.99902269
_symmetry_Int_Tables_number   1
_chemical_formula_structural   TmSiAu2
_chemical_formula_sum   'Tm1 Si1 Au2'
_cell_volume   76.71006874
_cell_formula_units_Z   1
loop_
 _symmetry_equiv_pos_site_id
 _symmetry_equiv_pos_as_xyz
  1  'x, y, z'
loop_
 _atom_site_type_symbol
 _atom_site_label
 _atom_site_symmetry_multiplicity
 _atom_site_fract_x
 _atom_site_fract_y
 _atom_site_fract_z
 _atom_site_occupancy
  Tm  Tm0  1  0.55268988  0.50589928  0.31193985  1
  Si  Si1  1  0.05197963  0.00524195  0.31202032  1
  Au  Au2  1  0.55242860  0.00591613  0.81205105  1
  Au  Au3  1  0.05314936  0.50581980  0.81110081  1
