# generated using pymatgen
data_V2IrRh
_symmetry_space_group_name_H-M   'P 1'
_cell_length_a   4.56439816
_cell_length_b   4.56572046
_cell_length_c   3.88773097
_cell_angle_alpha   64.77411812
_cell_angle_beta   64.75714378
_cell_angle_gamma   50.43815563
_symmetry_Int_Tables_number   1
_chemical_formula_structural   V2IrRh
_chemical_formula_sum   'V2 Ir1 Rh1'
_cell_volume   55.09089524
_cell_formula_units_Z   1
loop_
 _symmetry_equiv_pos_site_id
 _symmetry_equiv_pos_as_xyz
  1  'x, y, z'
loop_
 _atom_site_type_symbol
 _atom_site_label
 _atom_site_symmetry_multiplicity
 _atom_site_fract_x
 _atom_site_fract_y
 _atom_site_fract_z
 _atom_site_occupancy
  V  V0  1  0.67570327  0.42029518  0.13071646  1
  V  V1  1  0.17575312  0.92021362  0.63030602  1
  Ir  Ir2  1  0.92614432  0.67013256  0.38062072  1
  Rh  Rh3  1  0.42580605  0.16978664  0.88081114  1
