# generated using pymatgen
data_VCr2FeS4
_symmetry_space_group_name_H-M   'P 1'
_cell_length_a   3.52401290
_cell_length_b   3.52396118
_cell_length_c   10.09680426
_cell_angle_alpha   90.02602565
_cell_angle_beta   90.00265019
_cell_angle_gamma   89.99746391
_symmetry_Int_Tables_number   1
_chemical_formula_structural   VCr2FeS4
_chemical_formula_sum   'V1 Cr2 Fe1 S4'
_cell_volume   125.38699550
_cell_formula_units_Z   1
loop_
 _symmetry_equiv_pos_site_id
 _symmetry_equiv_pos_as_xyz
  1  'x, y, z'
loop_
 _atom_site_type_symbol
 _atom_site_label
 _atom_site_symmetry_multiplicity
 _atom_site_fract_x
 _atom_site_fract_y
 _atom_site_fract_z
 _atom_site_occupancy
  V  V0  1  0.42639829  0.24701460  0.15410285  1
  Cr  Cr1  1  0.92674709  0.74577718  0.89887694  1
  Cr  Cr2  1  0.92739659  0.75038361  0.40955646  1
  Fe  Fe3  1  0.42773406  0.24911071  0.65321094  1
  S  S4  1  0.92652927  0.74710739  0.15396050  1
  S  S5  1  0.92755123  0.74896333  0.65399466  1
  S  S6  1  0.42670475  0.24576592  0.90797011  1
  S  S7  1  0.42710160  0.25054731  0.39982421  1
