# generated using pymatgen
data_Y2CdBr6
_symmetry_space_group_name_H-M   'P 1'
_cell_length_a   3.95193905
_cell_length_b   3.95759275
_cell_length_c   22.07190126
_cell_angle_alpha   90.06874542
_cell_angle_beta   89.94781941
_cell_angle_gamma   120.09407391
_symmetry_Int_Tables_number   1
_chemical_formula_structural   Y2CdBr6
_chemical_formula_sum   'Y2 Cd1 Br6'
_cell_volume   298.67502238
_cell_formula_units_Z   1
loop_
 _symmetry_equiv_pos_site_id
 _symmetry_equiv_pos_as_xyz
  1  'x, y, z'
loop_
 _atom_site_type_symbol
 _atom_site_label
 _atom_site_symmetry_multiplicity
 _atom_site_fract_x
 _atom_site_fract_y
 _atom_site_fract_z
 _atom_site_occupancy
  Y  Y0  1  0.78590370  0.17937625  0.73919999  1
  Y  Y1  1  0.12357696  0.85200383  0.40016975  1
  Cd  Cd2  1  0.78485782  0.18451799  0.06253233  1
  Br  Br3  1  0.45305176  0.51237653  0.65860524  1
  Br  Br4  1  0.11826711  0.84720088  0.81936608  1
  Br  Br5  1  0.11865954  0.85170452  0.13667019  1
  Br  Br6  1  0.45063545  0.51752503  0.98855740  1
  Br  Br7  1  0.45584547  0.51774965  0.31986367  1
  Br  Br8  1  0.79110919  0.18564482  0.48073340  1
