# generated using pymatgen
data_Y2InPt5
_symmetry_space_group_name_H-M   'P 1'
_cell_length_a   4.36254173
_cell_length_b   4.36166528
_cell_length_c   7.78494487
_cell_angle_alpha   89.99922812
_cell_angle_beta   89.98626822
_cell_angle_gamma   89.93100300
_symmetry_Int_Tables_number   1
_chemical_formula_structural   Y2InPt5
_chemical_formula_sum   'Y2 In1 Pt5'
_cell_volume   148.13140489
_cell_formula_units_Z   1
loop_
 _symmetry_equiv_pos_site_id
 _symmetry_equiv_pos_as_xyz
  1  'x, y, z'
loop_
 _atom_site_type_symbol
 _atom_site_label
 _atom_site_symmetry_multiplicity
 _atom_site_fract_x
 _atom_site_fract_y
 _atom_site_fract_z
 _atom_site_occupancy
  Y  Y0  1  0.21978298  0.83683302  0.04451028  1
  Y  Y1  1  0.21977245  0.83685579  0.54447820  1
  In  In2  1  0.71979526  0.33683549  0.04437763  1
  Pt  Pt3  1  0.71965201  0.83651974  0.29267633  1
  Pt  Pt4  1  0.21935587  0.33675377  0.29266263  1
  Pt  Pt5  1  0.22021796  0.33694474  0.79628836  1
  Pt  Pt6  1  0.71979381  0.33687273  0.54445107  1
  Pt  Pt7  1  0.71990849  0.83718066  0.79628807  1
