# generated using pymatgen
data_YF3
_symmetry_space_group_name_H-M   'P 1'
_cell_length_a   3.52696175
_cell_length_b   4.37086711
_cell_length_c   12.13394316
_cell_angle_alpha   90.78414585
_cell_angle_beta   90.15242912
_cell_angle_gamma   90.00504595
_symmetry_Int_Tables_number   1
_chemical_formula_structural   YF3
_chemical_formula_sum   'Y2 F6'
_cell_volume   187.03724390
_cell_formula_units_Z   2
loop_
 _symmetry_equiv_pos_site_id
 _symmetry_equiv_pos_as_xyz
  1  'x, y, z'
loop_
 _atom_site_type_symbol
 _atom_site_label
 _atom_site_symmetry_multiplicity
 _atom_site_fract_x
 _atom_site_fract_y
 _atom_site_fract_z
 _atom_site_occupancy
  Y  Y0  1  0.99814700  0.27749559  0.71120374  1
  Y  Y1  1  0.03949048  0.29357684  0.21354244  1
  F  F2  1  0.49750480  0.27131527  0.60210661  1
  F  F3  1  0.54029712  0.29408899  0.32257258  1
  F  F4  1  0.53855932  0.29257663  0.10467126  1
  F  F5  1  0.99848910  0.77757106  0.71139798  1
  F  F6  1  0.03952786  0.79351484  0.21307319  1
  F  F7  1  0.50008915  0.28285907  0.82030635  1
