# generated using pymatgen
data_YHNCl
_symmetry_space_group_name_H-M   'P 1'
_cell_length_a   3.73922445
_cell_length_b   3.73887349
_cell_length_c   5.92133439
_cell_angle_alpha   90.20080666
_cell_angle_beta   89.80232193
_cell_angle_gamma   120.00441330
_symmetry_Int_Tables_number   1
_chemical_formula_structural   YHNCl
_chemical_formula_sum   'Y1 H1 N1 Cl1'
_cell_volume   71.68853536
_cell_formula_units_Z   1
loop_
 _symmetry_equiv_pos_site_id
 _symmetry_equiv_pos_as_xyz
  1  'x, y, z'
loop_
 _atom_site_type_symbol
 _atom_site_label
 _atom_site_symmetry_multiplicity
 _atom_site_fract_x
 _atom_site_fract_y
 _atom_site_fract_z
 _atom_site_occupancy
  Y  Y0  1  0.36630507  0.05088634  0.15292395  1
  H  H1  1  0.70256219  0.71662447  0.84969554  1
  N  N2  1  0.69959023  0.71717913  0.02432655  1
  Cl  Cl3  1  0.03035370  0.38557804  0.46602923  1
