# generated using pymatgen
data_YTm2SbO8
_symmetry_space_group_name_H-M   'P 1'
_cell_length_a   3.37769266
_cell_length_b   4.94163364
_cell_length_c   10.95006994
_cell_angle_alpha   88.43215323
_cell_angle_beta   107.97214395
_cell_angle_gamma   90.00212281
_symmetry_Int_Tables_number   1
_chemical_formula_structural   YTm2SbO8
_chemical_formula_sum   'Y1 Tm2 Sb1 O8'
_cell_volume   173.78122509
_cell_formula_units_Z   1
loop_
 _symmetry_equiv_pos_site_id
 _symmetry_equiv_pos_as_xyz
  1  'x, y, z'
loop_
 _atom_site_type_symbol
 _atom_site_label
 _atom_site_symmetry_multiplicity
 _atom_site_fract_x
 _atom_site_fract_y
 _atom_site_fract_z
 _atom_site_occupancy
  Y  Y0  1  0.05492739  0.53505728  0.49354393  1
  Tm  Tm1  1  0.81749183  0.02661960  0.75607250  1
  Tm  Tm2  1  0.29254898  0.04326039  0.23104131  1
  Sb  Sb3  1  0.55478811  0.53482913  0.99348290  1
  O  O4  1  0.44716684  0.33967860  0.38575074  1
  O  O5  1  0.14423968  0.71002893  0.08285662  1
  O  O6  1  0.66254282  0.73090198  0.60108291  1
  O  O7  1  0.42366574  0.82350876  0.86229182  1
  O  O8  1  0.89490675  0.85252772  0.33333849  1
  O  O9  1  0.68607120  0.24620004  0.12465637  1
  O  O10  1  0.96548822  0.35986863  0.90414463  1
  O  O11  1  0.21525305  0.21771673  0.65383166  1
