# generated using pymatgen
data_ZnRe2RhO8
_symmetry_space_group_name_H-M   'P 1'
_cell_length_a   3.12040385
_cell_length_b   5.43355010
_cell_length_c   9.99456396
_cell_angle_alpha   96.82744571
_cell_angle_beta   99.02950477
_cell_angle_gamma   89.99204864
_symmetry_Int_Tables_number   1
_chemical_formula_structural   ZnRe2RhO8
_chemical_formula_sum   'Zn1 Re2 Rh1 O8'
_cell_volume   166.14016166
_cell_formula_units_Z   1
loop_
 _symmetry_equiv_pos_site_id
 _symmetry_equiv_pos_as_xyz
  1  'x, y, z'
loop_
 _atom_site_type_symbol
 _atom_site_label
 _atom_site_symmetry_multiplicity
 _atom_site_fract_x
 _atom_site_fract_y
 _atom_site_fract_z
 _atom_site_occupancy
  Zn  Zn0  1  0.08430899  0.18564937  0.42120296  1
  Re  Re1  1  0.84081857  0.43108598  0.91898161  1
  Re  Re2  1  0.58241514  0.68522181  0.42167796  1
  Rh  Rh3  1  0.34115236  0.93965559  0.92011208  1
  O  O4  1  0.13845391  0.82082074  0.52958379  1
  O  O5  1  0.54242227  0.97689836  0.33694444  1
  O  O6  1  0.79582471  0.73677714  0.82995443  1
  O  O7  1  0.38866647  0.61581458  0.01437464  1
  O  O8  1  0.89047662  0.13987057  0.01830862  1
  O  O9  1  0.02987736  0.54819392  0.31346852  1
  O  O10  1  0.62783584  0.39324629  0.50671104  1
  O  O11  1  0.28961912  0.25906369  0.81719119  1
