# generated using pymatgen
data_ZrGa4Pd5
_symmetry_space_group_name_H-M   'P 1'
_cell_length_a   4.19340111
_cell_length_b   4.10639469
_cell_length_c   10.02368529
_cell_angle_alpha   78.17007687
_cell_angle_beta   89.98566484
_cell_angle_gamma   90.00034357
_symmetry_Int_Tables_number   1
_chemical_formula_structural   ZrGa4Pd5
_chemical_formula_sum   'Zr1 Ga4 Pd5'
_cell_volume   168.93938900
_cell_formula_units_Z   1
loop_
 _symmetry_equiv_pos_site_id
 _symmetry_equiv_pos_as_xyz
  1  'x, y, z'
loop_
 _atom_site_type_symbol
 _atom_site_label
 _atom_site_symmetry_multiplicity
 _atom_site_fract_x
 _atom_site_fract_y
 _atom_site_fract_z
 _atom_site_occupancy
  Zr  Zr0  1  0.68531760  0.42796020  0.25310931  1
  Ga  Ga1  1  0.68579004  0.80224862  0.50176069  1
  Ga  Ga2  1  0.18500142  0.98946155  0.12710935  1
  Ga  Ga3  1  0.68533465  0.63492310  0.83579573  1
  Ga  Ga4  1  0.18565971  0.29557863  0.51381266  1
  Pd  Pd5  1  0.68501695  0.05844201  0.98835631  1
  Pd  Pd6  1  0.18559884  0.71275501  0.67933311  1
  Pd  Pd7  1  0.18523180  0.56133891  0.98325889  1
  Pd  Pd8  1  0.18607030  0.86784115  0.36876037  1
  Pd  Pd9  1  0.68556314  0.21533061  0.67474313  1
