# generated using pymatgen
data_AgAsS2
_symmetry_space_group_name_H-M   'P 1'
_cell_length_a   3.71397259
_cell_length_b   3.71397270
_cell_length_c   6.55062459
_cell_angle_alpha   89.99999910
_cell_angle_beta   89.99999828
_cell_angle_gamma   120.00001003
_symmetry_Int_Tables_number   1
_chemical_formula_structural   AgAsS2
_chemical_formula_sum   'Ag1 As1 S2'
_cell_volume   78.25114493
_cell_formula_units_Z   1
loop_
 _symmetry_equiv_pos_site_id
 _symmetry_equiv_pos_as_xyz
  1  'x, y, z'
loop_
 _atom_site_type_symbol
 _atom_site_label
 _atom_site_symmetry_multiplicity
 _atom_site_fract_x
 _atom_site_fract_y
 _atom_site_fract_z
 _atom_site_occupancy
  Ag  Ag0  1  0.00000000  0.00000002  -0.00000000  1
  As  As1  1  0.00000002  0.00000004  0.50000000  1
  S  S2  1  0.66666661  0.33333329  0.72964156  1
  S  S3  1  0.33333337  0.66666665  0.27035844  1
