# generated using pymatgen
data_AgAuS
_symmetry_space_group_name_H-M   'P 1'
_cell_length_a   4.45541954
_cell_length_b   4.45541952
_cell_length_c   4.45541953
_cell_angle_alpha   59.99999081
_cell_angle_beta   59.99999090
_cell_angle_gamma   59.99999160
_symmetry_Int_Tables_number   1
_chemical_formula_structural   AgAuS
_chemical_formula_sum   'Ag1 Au1 S1'
_cell_volume   62.53897037
_cell_formula_units_Z   1
loop_
 _symmetry_equiv_pos_site_id
 _symmetry_equiv_pos_as_xyz
  1  'x, y, z'
loop_
 _atom_site_type_symbol
 _atom_site_label
 _atom_site_symmetry_multiplicity
 _atom_site_fract_x
 _atom_site_fract_y
 _atom_site_fract_z
 _atom_site_occupancy
  Ag  Ag0  1  0.00000001  0.00000001  0.00000002  1
  Au  Au1  1  0.74999999  0.74999999  0.74999999  1
  S  S2  1  0.49999999  0.49999999  0.49999999  1
