# generated using pymatgen
data_AgSbP2
_symmetry_space_group_name_H-M   'P 1'
_cell_length_a   3.74661430
_cell_length_b   3.74660919
_cell_length_c   6.65209080
_cell_angle_alpha   89.99984688
_cell_angle_beta   90.00004305
_cell_angle_gamma   120.00007890
_symmetry_Int_Tables_number   1
_chemical_formula_structural   AgSbP2
_chemical_formula_sum   'Ag1 Sb1 P2'
_cell_volume   80.86597662
_cell_formula_units_Z   1
loop_
 _symmetry_equiv_pos_site_id
 _symmetry_equiv_pos_as_xyz
  1  'x, y, z'
loop_
 _atom_site_type_symbol
 _atom_site_label
 _atom_site_symmetry_multiplicity
 _atom_site_fract_x
 _atom_site_fract_y
 _atom_site_fract_z
 _atom_site_occupancy
  Ag  Ag0  1  -0.00000003  -0.00000005  0.50000000  1
  Sb  Sb1  1  -0.00000002  0.00000001  0.00000001  1
  P  P2  1  0.66666674  0.33333355  0.74279296  1
  P  P3  1  0.33333331  0.66666648  0.25720703  1
