# generated using pymatgen
data_AgTe2Ru
_symmetry_space_group_name_H-M   'P 1'
_cell_length_a   3.27065862
_cell_length_b   8.70977397
_cell_length_c   7.87389294
_cell_angle_alpha   113.65968972
_cell_angle_beta   90.00005680
_cell_angle_gamma   90.00001498
_symmetry_Int_Tables_number   1
_chemical_formula_structural   AgTe2Ru
_chemical_formula_sum   'Ag2 Te4 Ru2'
_cell_volume   205.44760215
_cell_formula_units_Z   2
loop_
 _symmetry_equiv_pos_site_id
 _symmetry_equiv_pos_as_xyz
  1  'x, y, z'
loop_
 _atom_site_type_symbol
 _atom_site_label
 _atom_site_symmetry_multiplicity
 _atom_site_fract_x
 _atom_site_fract_y
 _atom_site_fract_z
 _atom_site_occupancy
  Ag  Ag0  1  0.00000000  0.00000000  0.50000000  1
  Ag  Ag1  1  0.00000000  0.50000000  0.50000000  1
  Te  Te2  1  0.50000047  0.25902917  0.13326568  1
  Te  Te3  1  -0.00000093  0.32691956  0.71945020  1
  Te  Te4  1  0.00000093  0.67308045  0.28054980  1
  Te  Te5  1  0.49999953  0.74097083  0.86673432  1
  Ru  Ru6  1  0.50000000  0.50000000  -0.00000000  1
  Ru  Ru7  1  0.00000000  -0.00000000  0.00000001  1
