# generated using pymatgen
data_AlAuSe2
_symmetry_space_group_name_H-M   'P 1'
_cell_length_a   6.89895687
_cell_length_b   5.34142292
_cell_length_c   5.34142408
_cell_angle_alpha   90.12978425
_cell_angle_beta   112.75009053
_cell_angle_gamma   112.75008528
_symmetry_Int_Tables_number   1
_chemical_formula_structural   AlAuSe2
_chemical_formula_sum   'Al2 Au2 Se4'
_cell_volume   164.70852991
_cell_formula_units_Z   2
loop_
 _symmetry_equiv_pos_site_id
 _symmetry_equiv_pos_as_xyz
  1  'x, y, z'
loop_
 _atom_site_type_symbol
 _atom_site_label
 _atom_site_symmetry_multiplicity
 _atom_site_fract_x
 _atom_site_fract_y
 _atom_site_fract_z
 _atom_site_occupancy
  Al  Al0  1  0.25000002  0.62783008  0.37216993  1
  Al  Al1  1  0.74999999  0.37216992  0.62783007  1
  Au  Au2  1  0.75000000  0.87361322  0.12638678  1
  Au  Au3  1  0.25000000  0.12638677  0.87361324  1
  Se  Se4  1  0.30229137  0.15210543  0.39967839  1
  Se  Se5  1  0.19770865  0.60032161  0.84789457  1
  Se  Se6  1  0.80229134  0.39967838  0.15210540  1
  Se  Se7  1  0.69770864  0.84789460  0.60032162  1
