# generated using pymatgen
data_AlHO2
_symmetry_space_group_name_H-M   'P 1'
_cell_length_a   3.01277594
_cell_length_b   4.15894056
_cell_length_c   6.95237835
_cell_angle_alpha   74.79923646
_cell_angle_beta   90.00000009
_cell_angle_gamma   90.00000090
_symmetry_Int_Tables_number   1
_chemical_formula_structural   AlHO2
_chemical_formula_sum   'Al2 H2 O4'
_cell_volume   84.06517283
_cell_formula_units_Z   2
loop_
 _symmetry_equiv_pos_site_id
 _symmetry_equiv_pos_as_xyz
  1  'x, y, z'
loop_
 _atom_site_type_symbol
 _atom_site_label
 _atom_site_symmetry_multiplicity
 _atom_site_fract_x
 _atom_site_fract_y
 _atom_site_fract_z
 _atom_site_occupancy
  Al  Al0  1  0.49999999  0.60114871  0.28542211  1
  Al  Al1  1  0.50000001  0.39887186  0.71457455  1
  H  H2  1  0.00000001  0.51844988  0.19301778  1
  H  H3  1  -0.00000001  0.48154900  0.80698061  1
  O  O4  1  0.50000000  0.02544943  0.09444083  1
  O  O5  1  0.50000000  0.97454391  0.90556370  1
  O  O6  1  0.50000001  0.76387926  0.49980473  1
  O  O7  1  0.49999999  0.23610794  0.50019568  1
