# generated using pymatgen
data_AlHS
_symmetry_space_group_name_H-M   'P 1'
_cell_length_a   3.90202006
_cell_length_b   3.90202078
_cell_length_c   3.90202121
_cell_angle_alpha   60.00000385
_cell_angle_beta   59.99999809
_cell_angle_gamma   60.00000786
_symmetry_Int_Tables_number   1
_chemical_formula_structural   AlHS
_chemical_formula_sum   'Al1 H1 S1'
_cell_volume   42.01010200
_cell_formula_units_Z   1
loop_
 _symmetry_equiv_pos_site_id
 _symmetry_equiv_pos_as_xyz
  1  'x, y, z'
loop_
 _atom_site_type_symbol
 _atom_site_label
 _atom_site_symmetry_multiplicity
 _atom_site_fract_x
 _atom_site_fract_y
 _atom_site_fract_z
 _atom_site_occupancy
  Al  Al0  1  -0.00000001  0.00000001  0.00000001  1
  H  H1  1  0.50000000  0.49999999  0.50000001  1
  S  S2  1  0.25000001  0.25000000  0.24999998  1
