# generated using pymatgen
data_AlSb2Mo
_symmetry_space_group_name_H-M   'P 1'
_cell_length_a   4.30856125
_cell_length_b   4.26046450
_cell_length_c   20.94243091
_cell_angle_alpha   89.36993519
_cell_angle_beta   73.13947814
_cell_angle_gamma   92.64359743
_symmetry_Int_Tables_number   1
_chemical_formula_structural   AlSb2Mo
_chemical_formula_sum   'Al4 Sb8 Mo4'
_cell_volume   367.39294174
_cell_formula_units_Z   4
loop_
 _symmetry_equiv_pos_site_id
 _symmetry_equiv_pos_as_xyz
  1  'x, y, z'
loop_
 _atom_site_type_symbol
 _atom_site_label
 _atom_site_symmetry_multiplicity
 _atom_site_fract_x
 _atom_site_fract_y
 _atom_site_fract_z
 _atom_site_occupancy
  Al  Al0  1  0.14105608  0.22852326  0.08972735  1
  Al  Al1  1  0.11232485  0.25097466  0.58926841  1
  Al  Al2  1  0.88947071  0.74673669  0.41059880  1
  Al  Al3  1  0.85854048  0.77433746  0.91050030  1
  Sb  Sb4  1  0.82976552  0.23482432  0.22767924  1
  Sb  Sb5  1  0.81835671  0.23902689  0.72727755  1
  Sb  Sb6  1  0.18051001  0.76047148  0.27254312  1
  Sb  Sb7  1  0.16855844  0.76502929  0.77244758  1
  Sb  Sb8  1  0.36335477  0.28461753  0.40297455  1
  Sb  Sb9  1  0.41425121  0.24182338  0.90291602  1
  Sb  Sb10  1  0.58540324  0.76087618  0.09720575  1
  Sb  Sb11  1  0.63804971  0.71279180  0.59687806  1
  Mo  Mo12  1  0.71057961  0.20914778  0.49986101  1
  Mo  Mo13  1  0.20628701  0.71454976  0.00039227  1
  Mo  Mo14  1  0.79312508  0.28808191  -0.00021105  1
  Mo  Mo15  1  0.29036758  0.78818561  0.49994202  1
