# generated using pymatgen
data_AlTlF4
_symmetry_space_group_name_H-M   'P 1'
_cell_length_a   6.58025481
_cell_length_b   5.61138388
_cell_length_c   5.15156636
_cell_angle_alpha   91.09675567
_cell_angle_beta   89.99999885
_cell_angle_gamma   90.00000499
_symmetry_Int_Tables_number   1
_chemical_formula_structural   AlTlF4
_chemical_formula_sum   'Al2 Tl2 F8'
_cell_volume   190.18331743
_cell_formula_units_Z   2
loop_
 _symmetry_equiv_pos_site_id
 _symmetry_equiv_pos_as_xyz
  1  'x, y, z'
loop_
 _atom_site_type_symbol
 _atom_site_label
 _atom_site_symmetry_multiplicity
 _atom_site_fract_x
 _atom_site_fract_y
 _atom_site_fract_z
 _atom_site_occupancy
  Al  Al0  1  0.12350235  0.00000002  0.24999998  1
  Al  Al1  1  0.87649765  -0.00000001  0.75000002  1
  Tl  Tl2  1  0.65855638  0.50000001  0.25000003  1
  Tl  Tl3  1  0.34144362  0.49999999  0.74999995  1
  F  F4  1  0.08431645  0.83368270  0.92714091  1
  F  F5  1  0.08431651  0.16631724  0.57285914  1
  F  F6  1  0.91568353  0.16631729  0.07285911  1
  F  F7  1  0.91568350  0.83368274  0.42714088  1
  F  F8  1  0.30039997  0.78774070  0.34460516  1
  F  F9  1  0.30039998  0.21225920  0.15539480  1
  F  F10  1  0.69960005  0.21225931  0.65539484  1
  F  F11  1  0.69960000  0.78774081  0.84460519  1
