# generated using pymatgen
data_As2RhN3
_symmetry_space_group_name_H-M   'P 1'
_cell_length_a   7.36398639
_cell_length_b   7.36397859
_cell_length_c   7.36410258
_cell_angle_alpha   109.47007936
_cell_angle_beta   109.47245854
_cell_angle_gamma   109.47070161
_symmetry_Int_Tables_number   1
_chemical_formula_structural   As2RhN3
_chemical_formula_sum   'As8 Rh4 N12'
_cell_volume   307.41545487
_cell_formula_units_Z   4
loop_
 _symmetry_equiv_pos_site_id
 _symmetry_equiv_pos_as_xyz
  1  'x, y, z'
loop_
 _atom_site_type_symbol
 _atom_site_label
 _atom_site_symmetry_multiplicity
 _atom_site_fract_x
 _atom_site_fract_y
 _atom_site_fract_z
 _atom_site_occupancy
  As  As0  1  0.50000863  0.00000613  0.94133573  1
  As  As1  1  0.94133107  0.50000170  0.00001282  1
  As  As2  1  0.50000265  0.00000721  0.55867252  1
  As  As3  1  0.00000501  0.55867540  0.50000548  1
  As  As4  1  0.94133774  0.94132789  0.94132662  1
  As  As5  1  0.55866660  0.49998729  -0.00000786  1
  As  As6  1  0.55866433  0.55867723  0.55866557  1
  As  As7  1  -0.00000641  0.94132256  0.49999006  1
  Rh  Rh8  1  0.24999911  0.25000566  0.24999463  1
  Rh  Rh9  1  -0.00004140  0.24998286  0.49999007  1
  Rh  Rh10  1  0.24999985  0.49999587  0.00000474  1
  Rh  Rh11  1  0.50001831  0.00000416  0.25000756  1
  N  N12  1  0.24999654  0.03966459  0.78966907  1
  N  N13  1  0.03966780  0.78967663  0.24999597  1
  N  N14  1  0.78968197  0.24999315  0.03967219  1
  N  N15  1  0.03966617  0.74999690  0.78966547  1
  N  N16  1  0.71032004  0.74999396  0.46032058  1
  N  N17  1  0.46034344  0.25000425  0.71032807  1
  N  N18  1  0.78966978  0.03967016  0.75000520  1
  N  N19  1  0.71031706  0.46032665  0.25000551  1
  N  N20  1  0.74999369  0.78966572  0.03966153  1
  N  N21  1  0.25000820  0.71033015  0.46033500  1
  N  N22  1  0.74999677  0.46033158  0.71033180  1
  N  N23  1  0.46035305  0.71035230  0.75001168  1
