# generated using pymatgen
data_AsPOs2
_symmetry_space_group_name_H-M   'P 1'
_cell_length_a   3.61601098
_cell_length_b   3.61601100
_cell_length_c   5.67790027
_cell_angle_alpha   90.00000733
_cell_angle_beta   89.99999631
_cell_angle_gamma   119.99999558
_symmetry_Int_Tables_number   1
_chemical_formula_structural   AsPOs2
_chemical_formula_sum   'As1 P1 Os2'
_cell_volume   64.29510282
_cell_formula_units_Z   1
loop_
 _symmetry_equiv_pos_site_id
 _symmetry_equiv_pos_as_xyz
  1  'x, y, z'
loop_
 _atom_site_type_symbol
 _atom_site_label
 _atom_site_symmetry_multiplicity
 _atom_site_fract_x
 _atom_site_fract_y
 _atom_site_fract_z
 _atom_site_occupancy
  As  As0  1  -0.00000007  0.00000001  0.50000041  1
  P  P1  1  0.00000001  -0.00000001  -0.00000058  1
  Os  Os2  1  0.66666674  0.33333321  0.81975431  1
  Os  Os3  1  0.33333331  0.66666679  0.18024585  1
