# generated using pymatgen
data_AsRh2Cl
_symmetry_space_group_name_H-M   'P 1'
_cell_length_a   3.87637366
_cell_length_b   6.79110146
_cell_length_c   6.52720564
_cell_angle_alpha   87.59652258
_cell_angle_beta   90.06886127
_cell_angle_gamma   71.79936342
_symmetry_Int_Tables_number   1
_chemical_formula_structural   AsRh2Cl
_chemical_formula_sum   'As2 Rh4 Cl2'
_cell_volume   163.06879680
_cell_formula_units_Z   2
loop_
 _symmetry_equiv_pos_site_id
 _symmetry_equiv_pos_as_xyz
  1  'x, y, z'
loop_
 _atom_site_type_symbol
 _atom_site_label
 _atom_site_symmetry_multiplicity
 _atom_site_fract_x
 _atom_site_fract_y
 _atom_site_fract_z
 _atom_site_occupancy
  As  As0  1  0.49997998  -0.00000538  0.50001769  1
  As  As1  1  -0.00002710  0.00000719  0.00001554  1
  Rh  Rh2  1  0.41716922  0.15109822  0.15537643  1
  Rh  Rh3  1  0.91717154  0.15109449  0.65536508  1
  Rh  Rh4  1  0.58279188  0.84889322  0.84466309  1
  Rh  Rh5  1  0.08279261  0.84889130  0.34466121  1
  Cl  Cl6  1  0.25005162  0.50001384  0.24996327  1
  Cl  Cl7  1  0.75005125  0.50000712  0.74993668  1
