# generated using pymatgen
data_Ba3SbF3
_symmetry_space_group_name_H-M   'P 1'
_cell_length_a   10.80748670
_cell_length_b   10.50042466
_cell_length_c   7.96633794
_cell_angle_alpha   86.72059441
_cell_angle_beta   86.50552051
_cell_angle_gamma   86.59809907
_symmetry_Int_Tables_number   1
_chemical_formula_structural   Ba3SbF3
_chemical_formula_sum   'Ba12 Sb4 F12'
_cell_volume   899.47078073
_cell_formula_units_Z   4
loop_
 _symmetry_equiv_pos_site_id
 _symmetry_equiv_pos_as_xyz
  1  'x, y, z'
loop_
 _atom_site_type_symbol
 _atom_site_label
 _atom_site_symmetry_multiplicity
 _atom_site_fract_x
 _atom_site_fract_y
 _atom_site_fract_z
 _atom_site_occupancy
  Ba  Ba0  1  0.63174694  0.06707545  0.34930551  1
  Ba  Ba1  1  0.94333100  0.36274112  0.10863136  1
  Ba  Ba2  1  0.37274613  0.94370903  0.61366072  1
  Ba  Ba3  1  0.08377459  0.65818455  0.85829155  1
  Ba  Ba4  1  0.37479296  0.35614954  0.67942408  1
  Ba  Ba5  1  0.65645444  0.63419991  0.79804038  1
  Ba  Ba6  1  0.62960887  0.64666786  0.29794819  1
  Ba  Ba7  1  0.35169355  0.37182929  0.17721487  1
  Ba  Ba8  1  0.82750097  -0.02435203  0.93413017  1
  Ba  Ba9  1  0.04464680  0.20475558  0.56021256  1
  Ba  Ba10  1  0.18279754  0.04005906  0.03596100  1
  Ba  Ba11  1  -0.03994421  0.80596511  0.41133601  1
  Sb  Sb12  1  0.53307931  0.12013721  -0.06383131  1
  Sb  Sb13  1  0.87117012  0.47773265  0.52632268  1
  Sb  Sb14  1  0.45809394  0.86306822  0.04281746  1
  Sb  Sb15  1  0.13527086  0.53566918  0.44818589  1
  F  F16  1  0.23943625  0.14571922  0.73040864  1
  F  F17  1  0.86886732  0.77325494  0.76224743  1
  F  F18  1  0.76143326  0.86356530  0.24103040  1
  F  F19  1  0.14455421  0.22682749  0.23375220  1
  F  F20  1  0.77694422  0.55242413  0.05605768  1
  F  F21  1  0.41696042  0.18285045  0.43336360  1
  F  F22  1  0.19087040  0.42781996  -0.06461144  1
  F  F23  1  0.57577454  0.79700863  0.54920793  1
  F  F24  1  0.47797555  0.48514422  0.90373702  1
  F  F25  1  0.48340310  0.46905759  0.40353899  1
  F  F26  1  -0.02074315  0.16314024  0.89652781  1
  F  F27  1  0.02776109  -0.15040191  0.07708661  1
