# generated using pymatgen
data_BaP2Rh
_symmetry_space_group_name_H-M   'P 1'
_cell_length_a   8.85902083
_cell_length_b   8.85880556
_cell_length_c   8.85902592
_cell_angle_alpha   103.96601164
_cell_angle_beta   103.96754958
_cell_angle_gamma   103.96661781
_symmetry_Int_Tables_number   1
_chemical_formula_structural   BaP2Rh
_chemical_formula_sum   'Ba6 P12 Rh6'
_cell_volume   620.73788720
_cell_formula_units_Z   6
loop_
 _symmetry_equiv_pos_site_id
 _symmetry_equiv_pos_as_xyz
  1  'x, y, z'
loop_
 _atom_site_type_symbol
 _atom_site_label
 _atom_site_symmetry_multiplicity
 _atom_site_fract_x
 _atom_site_fract_y
 _atom_site_fract_z
 _atom_site_occupancy
  Ba  Ba0  1  0.28140334  0.00024736  0.72027417  1
  Ba  Ba1  1  0.71859662  -0.00024841  0.27972583  1
  Ba  Ba2  1  -0.00024805  0.27972768  0.71859877  1
  Ba  Ba3  1  0.27972539  0.71859660  -0.00024891  1
  Ba  Ba4  1  0.00024743  0.72027333  0.28140251  1
  Ba  Ba5  1  0.72027453  0.28140344  0.00024723  1
  P  P6  1  0.58456540  0.58433137  0.14093801  1
  P  P7  1  0.14093535  0.58456419  0.58433842  1
  P  P8  1  0.41566527  0.85906742  0.41543185  1
  P  P9  1  0.58433053  0.14093633  0.58456232  1
  P  P10  1  0.41543422  0.41566580  0.85906632  1
  P  P11  1  0.85906108  0.41543503  0.41566224  1
  P  P12  1  0.60484274  0.87359949  0.87315803  1
  P  P13  1  0.87316397  0.60484005  0.87359480  1
  P  P14  1  0.87360362  0.87316173  0.60484148  1
  P  P15  1  0.39515762  0.12639635  0.12684379  1
  P  P16  1  0.12683772  0.39515804  0.12640571  1
  P  P17  1  0.12639582  0.12684005  0.39515730  1
  Rh  Rh18  1  0.35657931  0.08528989  0.35704514  1
  Rh  Rh19  1  0.08528956  0.35705148  0.35656792  1
  Rh  Rh20  1  0.35706057  0.35658399  0.08529317  1
  Rh  Rh21  1  0.64342502  0.91471454  0.64295703  1
  Rh  Rh22  1  0.91471424  0.64294783  0.64343438  1
  Rh  Rh23  1  0.64293869  0.64341641  0.91470250  1
