# generated using pymatgen
data_BaTiS2
_symmetry_space_group_name_H-M   'P 1'
_cell_length_a   3.78941164
_cell_length_b   3.78924373
_cell_length_c   7.28588071
_cell_angle_alpha   90.00301652
_cell_angle_beta   90.00019340
_cell_angle_gamma   120.00963146
_symmetry_Int_Tables_number   1
_chemical_formula_structural   BaTiS2
_chemical_formula_sum   'Ba1 Ti1 S2'
_cell_volume   90.59304456
_cell_formula_units_Z   1
loop_
 _symmetry_equiv_pos_site_id
 _symmetry_equiv_pos_as_xyz
  1  'x, y, z'
loop_
 _atom_site_type_symbol
 _atom_site_label
 _atom_site_symmetry_multiplicity
 _atom_site_fract_x
 _atom_site_fract_y
 _atom_site_fract_z
 _atom_site_occupancy
  Ba  Ba0  1  0.00000006  0.00000028  0.50000000  1
  Ti  Ti1  1  -0.00000004  -0.00000018  -0.00000008  1
  S  S2  1  0.33334012  0.66657296  0.18575292  1
  S  S3  1  0.66665986  0.33342694  0.81424716  1
