# generated using pymatgen
data_BaTmC
_symmetry_space_group_name_H-M   'P 1'
_cell_length_a   4.65610047
_cell_length_b   4.65610058
_cell_length_c   4.65610038
_cell_angle_alpha   59.99999936
_cell_angle_beta   59.99999798
_cell_angle_gamma   59.99999832
_symmetry_Int_Tables_number   1
_chemical_formula_structural   BaTmC
_chemical_formula_sum   'Ba1 Tm1 C1'
_cell_volume   71.37596915
_cell_formula_units_Z   1
loop_
 _symmetry_equiv_pos_site_id
 _symmetry_equiv_pos_as_xyz
  1  'x, y, z'
loop_
 _atom_site_type_symbol
 _atom_site_label
 _atom_site_symmetry_multiplicity
 _atom_site_fract_x
 _atom_site_fract_y
 _atom_site_fract_z
 _atom_site_occupancy
  Ba  Ba0  1  0.49999998  0.50000003  0.50000000  1
  Tm  Tm1  1  0.75000004  0.74999998  0.74999999  1
  C  C2  1  -0.00000002  -0.00000001  0.00000001  1
