# generated using pymatgen
data_BAuO2
_symmetry_space_group_name_H-M   'P 1'
_cell_length_a   7.81783889
_cell_length_b   7.82329840
_cell_length_c   7.16755256
_cell_angle_alpha   63.11206370
_cell_angle_beta   63.12059486
_cell_angle_gamma   117.28617516
_symmetry_Int_Tables_number   1
_chemical_formula_structural   BAuO2
_chemical_formula_sum   'B4 Au4 O8'
_cell_volume   192.80247841
_cell_formula_units_Z   4
loop_
 _symmetry_equiv_pos_site_id
 _symmetry_equiv_pos_as_xyz
  1  'x, y, z'
loop_
 _atom_site_type_symbol
 _atom_site_label
 _atom_site_symmetry_multiplicity
 _atom_site_fract_x
 _atom_site_fract_y
 _atom_site_fract_z
 _atom_site_occupancy
  B  B0  1  0.09603926  0.90656935  0.24912046  1
  B  B1  1  0.26295897  0.73641140  0.25035529  1
  B  B2  1  0.73705491  0.26359395  0.74964228  1
  B  B3  1  0.90394150  0.09341767  0.75088872  1
  Au  Au4  1  0.18565265  0.81416294  0.75005934  1
  Au  Au5  1  0.55869171  0.44043789  0.25056733  1
  Au  Au6  1  0.44129800  0.55956262  0.74943432  1
  Au  Au7  1  0.81434256  0.18583189  0.24994752  1
  O  O8  1  0.03722586  0.41508547  0.62474603  1
  O  O9  1  0.15057127  0.24655833  0.42492054  1
  O  O10  1  0.75342686  0.84894653  0.07516006  1
  O  O11  1  0.41430324  0.03711345  0.12451756  1
  O  O12  1  0.58570404  0.96289378  0.87548091  1
  O  O13  1  0.24656925  0.15103965  0.92484627  1
  O  O14  1  0.84943738  0.75344631  0.57506872  1
  O  O15  1  0.96278254  0.58492880  0.37524465  1
