# generated using pymatgen
data_BaVC
_symmetry_space_group_name_H-M   'P 1'
_cell_length_a   4.52243183
_cell_length_b   4.52243113
_cell_length_c   4.52243069
_cell_angle_alpha   59.99996457
_cell_angle_beta   59.99996073
_cell_angle_gamma   59.99995050
_symmetry_Int_Tables_number   1
_chemical_formula_structural   BaVC
_chemical_formula_sum   'Ba1 V1 C1'
_cell_volume   65.40342705
_cell_formula_units_Z   1
loop_
 _symmetry_equiv_pos_site_id
 _symmetry_equiv_pos_as_xyz
  1  'x, y, z'
loop_
 _atom_site_type_symbol
 _atom_site_label
 _atom_site_symmetry_multiplicity
 _atom_site_fract_x
 _atom_site_fract_y
 _atom_site_fract_z
 _atom_site_occupancy
  Ba  Ba0  1  -0.00000004  -0.00000000  -0.00000005  1
  V  V1  1  0.50000015  0.49999992  0.50000004  1
  C  C2  1  0.74999988  0.75000008  0.75000001  1
