# generated using pymatgen
data_Be2PCl
_symmetry_space_group_name_H-M   'P 1'
_cell_length_a   3.39453429
_cell_length_b   3.39453473
_cell_length_c   6.27432613
_cell_angle_alpha   90.00338612
_cell_angle_beta   89.99666243
_cell_angle_gamma   119.99914107
_symmetry_Int_Tables_number   1
_chemical_formula_structural   Be2PCl
_chemical_formula_sum   'Be2 P1 Cl1'
_cell_volume   62.61262843
_cell_formula_units_Z   1
loop_
 _symmetry_equiv_pos_site_id
 _symmetry_equiv_pos_as_xyz
  1  'x, y, z'
loop_
 _atom_site_type_symbol
 _atom_site_label
 _atom_site_symmetry_multiplicity
 _atom_site_fract_x
 _atom_site_fract_y
 _atom_site_fract_z
 _atom_site_occupancy
  Be  Be0  1  0.33333768  0.66666241  0.16179922  1
  Be  Be1  1  0.66666213  0.33333757  0.83820095  1
  P  P2  1  -0.00000020  -0.00000003  -0.00000001  1
  Cl  Cl3  1  0.00000039  0.00000006  0.49999984  1
