# generated using pymatgen
data_BeIrN2
_symmetry_space_group_name_H-M   'P 1'
_cell_length_a   3.80529362
_cell_length_b   3.67999049
_cell_length_c   5.40919546
_cell_angle_alpha   132.79785321
_cell_angle_beta   90.05734878
_cell_angle_gamma   89.93945634
_symmetry_Int_Tables_number   1
_chemical_formula_structural   BeIrN2
_chemical_formula_sum   'Be1 Ir1 N2'
_cell_volume   55.57999892
_cell_formula_units_Z   1
loop_
 _symmetry_equiv_pos_site_id
 _symmetry_equiv_pos_as_xyz
  1  'x, y, z'
loop_
 _atom_site_type_symbol
 _atom_site_label
 _atom_site_symmetry_multiplicity
 _atom_site_fract_x
 _atom_site_fract_y
 _atom_site_fract_z
 _atom_site_occupancy
  Be  Be0  1  0.00000002  0.00000013  0.00000020  1
  Ir  Ir1  1  -0.00000004  -0.00000247  0.49999998  1
  N  N2  1  0.00000009  0.50000191  0.49999989  1
  N  N3  1  -0.00000006  0.50000043  -0.00000007  1
