# generated using pymatgen
data_BeP2S
_symmetry_space_group_name_H-M   'P 1'
_cell_length_a   4.05089225
_cell_length_b   6.84686803
_cell_length_c   5.98003301
_cell_angle_alpha   124.90484069
_cell_angle_beta   89.98757716
_cell_angle_gamma   90.02309140
_symmetry_Int_Tables_number   1
_chemical_formula_structural   BeP2S
_chemical_formula_sum   'Be2 P4 S2'
_cell_volume   136.02379219
_cell_formula_units_Z   2
loop_
 _symmetry_equiv_pos_site_id
 _symmetry_equiv_pos_as_xyz
  1  'x, y, z'
loop_
 _atom_site_type_symbol
 _atom_site_label
 _atom_site_symmetry_multiplicity
 _atom_site_fract_x
 _atom_site_fract_y
 _atom_site_fract_z
 _atom_site_occupancy
  Be  Be0  1  -0.18809714  0.00136427  0.50048946  1
  Be  Be1  1  -0.18740292  0.50102726  0.49936192  1
  P  P2  1  0.52543355  0.17567497  0.35063610  1
  P  P3  1  0.10010767  0.32529729  0.64918771  1
  P  P4  1  0.10005107  0.67644467  0.35056228  1
  P  P5  1  0.52506932  0.82530053  0.64974519  1
  S  S6  1  0.42078848  0.49781396  0.00004965  1
  S  S7  1  0.20404998  -0.00292295  -0.00003232  1
