# generated using pymatgen
data_BeReC
_symmetry_space_group_name_H-M   'P 1'
_cell_length_a   3.49316123
_cell_length_b   3.49316985
_cell_length_c   3.49313784
_cell_angle_alpha   59.99679998
_cell_angle_beta   59.99676544
_cell_angle_gamma   59.99666266
_symmetry_Int_Tables_number   1
_chemical_formula_structural   BeReC
_chemical_formula_sum   'Be1 Re1 C1'
_cell_volume   30.13748351
_cell_formula_units_Z   1
loop_
 _symmetry_equiv_pos_site_id
 _symmetry_equiv_pos_as_xyz
  1  'x, y, z'
loop_
 _atom_site_type_symbol
 _atom_site_label
 _atom_site_symmetry_multiplicity
 _atom_site_fract_x
 _atom_site_fract_y
 _atom_site_fract_z
 _atom_site_occupancy
  Be  Be0  1  0.25000001  0.25000000  0.25000002  1
  Re  Re1  1  -0.00000001  0.00000001  -0.00000005  1
  C  C2  1  0.50000000  0.49999999  0.50000002  1
