# generated using pymatgen
data_BeSb2Pb
_symmetry_space_group_name_H-M   'P 1'
_cell_length_a   9.24653281
_cell_length_b   9.24653839
_cell_length_c   9.24654487
_cell_angle_alpha   106.49151189
_cell_angle_beta   106.49155971
_cell_angle_gamma   106.49152145
_symmetry_Int_Tables_number   1
_chemical_formula_structural   BeSb2Pb
_chemical_formula_sum   'Be6 Sb12 Pb6'
_cell_volume   667.31169887
_cell_formula_units_Z   6
loop_
 _symmetry_equiv_pos_site_id
 _symmetry_equiv_pos_as_xyz
  1  'x, y, z'
loop_
 _atom_site_type_symbol
 _atom_site_label
 _atom_site_symmetry_multiplicity
 _atom_site_fract_x
 _atom_site_fract_y
 _atom_site_fract_z
 _atom_site_occupancy
  Be  Be0  1  0.32464609  0.82408346  0.98998232  1
  Be  Be1  1  0.82408402  0.98998226  0.32464650  1
  Be  Be2  1  0.98998235  0.32464679  0.82408428  1
  Be  Be3  1  0.67535361  0.17591648  0.01001764  1
  Be  Be4  1  0.17591597  0.01001784  0.67535327  1
  Be  Be5  1  0.01001755  0.67535307  0.17591577  1
  Sb  Sb6  1  0.11885025  -0.00792838  0.39209767  1
  Sb  Sb7  1  -0.00792884  0.39209724  0.11884973  1
  Sb  Sb8  1  0.39209762  0.11884984  -0.00792894  1
  Sb  Sb9  1  0.88114993  0.00792858  0.60790234  1
  Sb  Sb10  1  0.00792897  0.60790279  0.88115049  1
  Sb  Sb11  1  0.60790227  0.88115024  0.00792906  1
  Sb  Sb12  1  0.79888446  0.25036827  0.31998485  1
  Sb  Sb13  1  0.25036770  0.31998446  0.79888316  1
  Sb  Sb14  1  0.68001536  0.20111630  0.74963152  1
  Sb  Sb15  1  0.20111573  0.74963173  0.68001497  1
  Sb  Sb16  1  0.74963222  0.68001552  0.20111693  1
  Sb  Sb17  1  0.31998455  0.79888372  0.25036851  1
  Pb  Pb18  1  0.19778167  0.40174327  0.46897351  1
  Pb  Pb19  1  0.53102698  0.80221884  0.59825756  1
  Pb  Pb20  1  0.80221859  0.59825656  0.53102644  1
  Pb  Pb21  1  0.40174287  0.46897354  0.19778078  1
  Pb  Pb22  1  0.46897304  0.19778121  0.40174231  1
  Pb  Pb23  1  0.59825705  0.53102638  0.80221932  1
