# generated using pymatgen
data_BeTlP
_symmetry_space_group_name_H-M   'P 1'
_cell_length_a   4.32565461
_cell_length_b   4.32565434
_cell_length_c   4.32565490
_cell_angle_alpha   59.99949415
_cell_angle_beta   59.99950348
_cell_angle_gamma   59.99948972
_symmetry_Int_Tables_number   1
_chemical_formula_structural   BeTlP
_chemical_formula_sum   'Be1 Tl1 P1'
_cell_volume   57.23155657
_cell_formula_units_Z   1
loop_
 _symmetry_equiv_pos_site_id
 _symmetry_equiv_pos_as_xyz
  1  'x, y, z'
loop_
 _atom_site_type_symbol
 _atom_site_label
 _atom_site_symmetry_multiplicity
 _atom_site_fract_x
 _atom_site_fract_y
 _atom_site_fract_z
 _atom_site_occupancy
  Be  Be0  1  0.75000012  0.74999994  0.75000038  1
  Tl  Tl1  1  0.00000060  0.00000060  0.00000044  1
  P  P2  1  0.49999928  0.49999946  0.49999918  1
