# generated using pymatgen
data_BeVTe2
_symmetry_space_group_name_H-M   'P 1'
_cell_length_a   5.06918625
_cell_length_b   5.08752512
_cell_length_c   10.14311664
_cell_angle_alpha   91.51586943
_cell_angle_beta   73.74421429
_cell_angle_gamma   137.49005310
_symmetry_Int_Tables_number   1
_chemical_formula_structural   BeVTe2
_chemical_formula_sum   'Be2 V2 Te4'
_cell_volume   163.03699622
_cell_formula_units_Z   2
loop_
 _symmetry_equiv_pos_site_id
 _symmetry_equiv_pos_as_xyz
  1  'x, y, z'
loop_
 _atom_site_type_symbol
 _atom_site_label
 _atom_site_symmetry_multiplicity
 _atom_site_fract_x
 _atom_site_fract_y
 _atom_site_fract_z
 _atom_site_occupancy
  Be  Be0  1  0.44006931  0.13221861  0.96357189  1
  Be  Be1  1  0.55992170  0.86777190  0.03642512  1
  V  V2  1  0.79652042  0.43369902  0.13736258  1
  V  V3  1  0.20348970  0.56631156  0.86263521  1
  Te  Te4  1  -0.02510472  -0.10837460  0.81526803  1
  Te  Te5  1  0.02510293  0.10838211  0.18473249  1
  Te  Te6  1  0.45758620  0.19610968  0.42604963  1
  Te  Te7  1  0.54241446  0.80388173  0.57395505  1
