# generated using pymatgen
data_Bi2Sb3Au
_symmetry_space_group_name_H-M   'P 1'
_cell_length_a   9.77308352
_cell_length_b   9.77307246
_cell_length_c   9.77308963
_cell_angle_alpha   109.47157668
_cell_angle_beta   109.47088002
_cell_angle_gamma   109.47127175
_symmetry_Int_Tables_number   1
_chemical_formula_structural   Bi2Sb3Au
_chemical_formula_sum   'Bi8 Sb12 Au4'
_cell_volume   718.57543017
_cell_formula_units_Z   4
loop_
 _symmetry_equiv_pos_site_id
 _symmetry_equiv_pos_as_xyz
  1  'x, y, z'
loop_
 _atom_site_type_symbol
 _atom_site_label
 _atom_site_symmetry_multiplicity
 _atom_site_fract_x
 _atom_site_fract_y
 _atom_site_fract_z
 _atom_site_occupancy
  Bi  Bi0  1  0.49999973  0.00000002  0.93097304  1
  Bi  Bi1  1  0.93097308  0.49999983  -0.00000049  1
  Bi  Bi2  1  0.50000032  -0.00000018  0.56902643  1
  Bi  Bi3  1  -0.00000018  0.56902644  0.49999964  1
  Bi  Bi4  1  0.93097348  0.93097399  0.93097370  1
  Bi  Bi5  1  0.56902668  0.50000021  0.00000033  1
  Bi  Bi6  1  0.56902628  0.56902591  0.56902624  1
  Bi  Bi7  1  0.00000030  0.93097397  0.50000049  1
  Sb  Sb8  1  0.24999994  0.17437103  0.92437070  1
  Sb  Sb9  1  0.17437119  0.92437162  0.25000076  1
  Sb  Sb10  1  0.92437168  0.25000037  0.17437139  1
  Sb  Sb11  1  0.17437055  0.75000001  0.92437081  1
  Sb  Sb12  1  0.57562919  0.74999992  0.32562920  1
  Sb  Sb13  1  0.32562847  0.24999993  0.57562863  1
  Sb  Sb14  1  0.92437103  0.17437075  0.75000011  1
  Sb  Sb15  1  0.57562894  0.32562921  0.24999996  1
  Sb  Sb16  1  0.75000055  0.92437103  0.17437093  1
  Sb  Sb17  1  0.24999944  0.57562853  0.32562903  1
  Sb  Sb18  1  0.74999982  0.32562922  0.57562924  1
  Sb  Sb19  1  0.32562926  0.57562834  0.74999936  1
  Au  Au20  1  0.24999995  0.25000012  0.25000020  1
  Au  Au21  1  0.00000026  0.24999988  0.50000004  1
  Au  Au22  1  0.25000007  0.49999981  -0.00000005  1
  Au  Au23  1  0.49999999  0.00000002  0.25000031  1
