# generated using pymatgen
data_BiAsI2
_symmetry_space_group_name_H-M   'P 1'
_cell_length_a   3.80870816
_cell_length_b   3.80870749
_cell_length_c   9.86328170
_cell_angle_alpha   89.99998975
_cell_angle_beta   90.00000235
_cell_angle_gamma   119.99998924
_symmetry_Int_Tables_number   1
_chemical_formula_structural   BiAsI2
_chemical_formula_sum   'Bi1 As1 I2'
_cell_volume   123.91030676
_cell_formula_units_Z   1
loop_
 _symmetry_equiv_pos_site_id
 _symmetry_equiv_pos_as_xyz
  1  'x, y, z'
loop_
 _atom_site_type_symbol
 _atom_site_label
 _atom_site_symmetry_multiplicity
 _atom_site_fract_x
 _atom_site_fract_y
 _atom_site_fract_z
 _atom_site_occupancy
  Bi  Bi0  1  -0.00000002  -0.00000001  0.50000000  1
  As  As1  1  -0.00000002  -0.00000004  0.00000000  1
  I  I2  1  0.33333342  0.66666668  0.78324139  1
  I  I3  1  0.66666663  0.33333337  0.21675861  1
