# generated using pymatgen
data_BiSbAs2
_symmetry_space_group_name_H-M   'P 1'
_cell_length_a   10.28364480
_cell_length_b   10.28364516
_cell_length_c   7.29775023
_cell_angle_alpha   61.83642392
_cell_angle_beta   118.16357426
_cell_angle_gamma   70.57246186
_symmetry_Int_Tables_number   1
_chemical_formula_structural   BiSbAs2
_chemical_formula_sum   'Bi4 Sb4 As8'
_cell_volume   419.61511040
_cell_formula_units_Z   4
loop_
 _symmetry_equiv_pos_site_id
 _symmetry_equiv_pos_as_xyz
  1  'x, y, z'
loop_
 _atom_site_type_symbol
 _atom_site_label
 _atom_site_symmetry_multiplicity
 _atom_site_fract_x
 _atom_site_fract_y
 _atom_site_fract_z
 _atom_site_occupancy
  Bi  Bi0  1  0.18868211  0.18868231  0.74999990  1
  Bi  Bi1  1  0.43686108  0.43686148  0.74999979  1
  Bi  Bi2  1  0.81131770  0.81131812  0.24999976  1
  Bi  Bi3  1  0.56313870  0.56313899  0.24999983  1
  Sb  Sb4  1  0.68709099  0.68709113  0.74999996  1
  Sb  Sb5  1  0.93832687  0.93832732  0.74999973  1
  Sb  Sb6  1  0.06167295  0.06167316  0.24999991  1
  Sb  Sb7  1  0.31290880  0.31290938  0.24999963  1
  As  As8  1  0.18356857  0.69145186  0.74983023  1
  As  As9  1  0.43001595  0.94474092  0.72742437  1
  As  As10  1  0.30854786  0.81643141  0.24983001  1
  As  As11  1  0.05525896  0.56998390  0.22742439  1
  As  As12  1  0.94474123  0.43001564  0.77257598  1
  As  As13  1  0.69145231  0.18356817  0.75017027  1
  As  As14  1  0.56998424  0.05525861  0.27257599  1
  As  As15  1  0.81643168  0.30854758  0.25017025  1
