# generated using pymatgen
data_BSb3Rh2
_symmetry_space_group_name_H-M   'P 1'
_cell_length_a   8.72386140
_cell_length_b   8.72384699
_cell_length_c   8.72384920
_cell_angle_alpha   109.47170238
_cell_angle_beta   109.47177042
_cell_angle_gamma   109.47175807
_symmetry_Int_Tables_number   1
_chemical_formula_structural   BSb3Rh2
_chemical_formula_sum   'B4 Sb12 Rh8'
_cell_volume   511.08677826
_cell_formula_units_Z   4
loop_
 _symmetry_equiv_pos_site_id
 _symmetry_equiv_pos_as_xyz
  1  'x, y, z'
loop_
 _atom_site_type_symbol
 _atom_site_label
 _atom_site_symmetry_multiplicity
 _atom_site_fract_x
 _atom_site_fract_y
 _atom_site_fract_z
 _atom_site_occupancy
  B  B0  1  0.50000017  -0.00000029  0.24999776  1
  B  B1  1  0.24999955  0.49999973  -0.00000026  1
  B  B2  1  0.25000059  0.25000010  0.25000011  1
  B  B3  1  0.00000016  0.24999855  0.49999971  1
  Sb  Sb4  1  0.87387286  0.24999945  0.12387229  1
  Sb  Sb5  1  0.87387419  0.12387363  0.74999986  1
  Sb  Sb6  1  0.62612604  0.37612594  0.24999971  1
  Sb  Sb7  1  0.74999973  0.37612684  0.62612655  1
  Sb  Sb8  1  0.75000014  0.87387380  0.12387408  1
  Sb  Sb9  1  0.62612702  0.74999946  0.37612627  1
  Sb  Sb10  1  0.37612630  0.24999998  0.62612624  1
  Sb  Sb11  1  0.25000033  0.62612607  0.37612633  1
  Sb  Sb12  1  0.24999996  0.12387278  0.87387274  1
  Sb  Sb13  1  0.12387256  0.87387298  0.24999955  1
  Sb  Sb14  1  0.37612721  0.62612691  0.75000002  1
  Sb  Sb15  1  0.12387458  0.75000059  0.87387428  1
  Rh  Rh16  1  0.03031575  0.49999972  -0.00000044  1
  Rh  Rh17  1  0.46968537  0.50000008  -0.00000027  1
  Rh  Rh18  1  0.50000038  -0.00000029  0.46968879  1
  Rh  Rh19  1  0.50000019  -0.00000046  0.03032079  1
  Rh  Rh20  1  0.46967526  0.46967493  0.46967490  1
  Rh  Rh21  1  0.03032153  0.03032102  0.03032112  1
  Rh  Rh22  1  0.00000003  0.46968813  0.49999994  1
  Rh  Rh23  1  0.00000010  0.03032036  0.49999991  1
