# generated using pymatgen
data_Ca2WN3
_symmetry_space_group_name_H-M   'P 1'
_cell_length_a   7.83683670
_cell_length_b   7.83695363
_cell_length_c   7.83697724
_cell_angle_alpha   109.46934907
_cell_angle_beta   109.46552830
_cell_angle_gamma   109.47521936
_symmetry_Int_Tables_number   1
_chemical_formula_structural   Ca2WN3
_chemical_formula_sum   'Ca8 W4 N12'
_cell_volume   370.53895619
_cell_formula_units_Z   4
loop_
 _symmetry_equiv_pos_site_id
 _symmetry_equiv_pos_as_xyz
  1  'x, y, z'
loop_
 _atom_site_type_symbol
 _atom_site_label
 _atom_site_symmetry_multiplicity
 _atom_site_fract_x
 _atom_site_fract_y
 _atom_site_fract_z
 _atom_site_occupancy
  Ca  Ca0  1  0.93218077  0.50001705  -0.00000372  1
  Ca  Ca1  1  0.56781388  0.49999910  -0.00000208  1
  Ca  Ca2  1  0.50000215  -0.00001922  0.56780810  1
  Ca  Ca3  1  0.50000793  -0.00001352  0.93217571  1
  Ca  Ca4  1  0.56782037  0.56782145  0.56781892  1
  Ca  Ca5  1  0.93218037  0.93219899  0.93218783  1
  Ca  Ca6  1  -0.00001759  0.56780935  0.50000361  1
  Ca  Ca7  1  0.00001556  0.93218607  0.50001309  1
  W  W8  1  0.49997862  0.00005988  0.25002304  1
  W  W9  1  0.24999886  0.49996394  0.00000211  1
  W  W10  1  0.25000928  0.24996957  0.24999395  1
  W  W11  1  0.00001219  0.25000801  0.49998108  1
  N  N12  1  0.96683999  0.24998912  0.21684481  1
  N  N13  1  0.96680102  0.21680862  0.74998156  1
  N  N14  1  0.53317046  0.28316533  0.25001005  1
  N  N15  1  0.75004375  0.28317356  0.53320683  1
  N  N16  1  0.74996091  0.96679709  0.21682345  1
  N  N17  1  0.53318601  0.75002187  0.28317648  1
  N  N18  1  0.28315098  0.25003569  0.53318638  1
  N  N19  1  0.25002805  0.53318622  0.28316530  1
  N  N20  1  0.24996394  0.21683727  0.96680572  1
  N  N21  1  0.21683762  0.96680971  0.24997245  1
  N  N22  1  0.28318816  0.53321486  0.75003299  1
  N  N23  1  0.21682672  0.74996002  0.96679233  1
