# generated using pymatgen
data_Ca3CuC2
_symmetry_space_group_name_H-M   'P 1'
_cell_length_a   8.30846504
_cell_length_b   8.30830136
_cell_length_c   8.30873809
_cell_angle_alpha   109.47170289
_cell_angle_beta   109.47174004
_cell_angle_gamma   109.47262026
_symmetry_Int_Tables_number   1
_chemical_formula_structural   Ca3CuC2
_chemical_formula_sum   'Ca12 Cu4 C8'
_cell_volume   441.50268103
_cell_formula_units_Z   4
loop_
 _symmetry_equiv_pos_site_id
 _symmetry_equiv_pos_as_xyz
  1  'x, y, z'
loop_
 _atom_site_type_symbol
 _atom_site_label
 _atom_site_symmetry_multiplicity
 _atom_site_fract_x
 _atom_site_fract_y
 _atom_site_fract_z
 _atom_site_occupancy
  Ca  Ca0  1  0.86857642  0.25001155  0.11857757  1
  Ca  Ca1  1  0.86854997  0.11856229  0.75002240  1
  Ca  Ca2  1  0.63143341  0.38142282  0.24999371  1
  Ca  Ca3  1  0.74998370  0.38140719  0.63139114  1
  Ca  Ca4  1  0.74999553  0.86856261  0.11858751  1
  Ca  Ca5  1  0.63143760  0.74999844  0.38142076  1
  Ca  Ca6  1  0.38143789  0.25000984  0.63144115  1
  Ca  Ca7  1  0.25000927  0.63145435  0.38143378  1
  Ca  Ca8  1  0.24999154  0.11857039  0.86856201  1
  Ca  Ca9  1  0.11854318  0.86854374  0.24997474  1
  Ca  Ca10  1  0.38146824  0.63146589  0.75000894  1
  Ca  Ca11  1  0.11856142  0.74998459  0.86857873  1
  Cu  Cu12  1  0.49995461  -0.00006308  0.24996334  1
  Cu  Cu13  1  0.25001540  0.50003688  0.00000811  1
  Cu  Cu14  1  0.25001441  0.25000725  0.25000328  1
  Cu  Cu15  1  0.00001868  0.25002119  0.50003701  1
  C  C16  1  0.01565554  0.49998222  -0.00000823  1
  C  C17  1  0.48432914  0.49997819  -0.00001344  1
  C  C18  1  0.49999159  0.00001271  0.48435240  1
  C  C19  1  0.50001076  0.00000291  0.01566023  1
  C  C20  1  0.48436957  0.48437326  0.48434975  1
  C  C21  1  0.01565120  0.01565546  0.01565117  1
  C  C22  1  0.00000928  0.48436321  0.50000059  1
  C  C23  1  -0.00000837  0.01563610  0.50000333  1
