# generated using pymatgen
data_Ca3MnAs3
_symmetry_space_group_name_H-M   'P 1'
_cell_length_a   8.18206217
_cell_length_b   7.57371914
_cell_length_c   7.57302048
_cell_angle_alpha   107.81659052
_cell_angle_beta   111.12427129
_cell_angle_gamma   111.06914035
_symmetry_Int_Tables_number   1
_chemical_formula_structural   Ca3MnAs3
_chemical_formula_sum   'Ca6 Mn2 As6'
_cell_volume   353.67788703
_cell_formula_units_Z   2
loop_
 _symmetry_equiv_pos_site_id
 _symmetry_equiv_pos_as_xyz
  1  'x, y, z'
loop_
 _atom_site_type_symbol
 _atom_site_label
 _atom_site_symmetry_multiplicity
 _atom_site_fract_x
 _atom_site_fract_y
 _atom_site_fract_z
 _atom_site_occupancy
  Ca  Ca0  1  0.53147096  0.02701937  0.66942367  1
  Ca  Ca1  1  0.36202552  0.35761570  0.33056485  1
  Ca  Ca2  1  0.50451365  -0.02699370  0.14242442  1
  Ca  Ca3  1  0.00453240  0.64244574  0.47304614  1
  Ca  Ca4  1  0.86209282  0.83060432  0.85761015  1
  Ca  Ca5  1  0.03150937  0.16943902  0.52702070  1
  Mn  Mn6  1  0.00596514  0.50006216  -0.00014429  1
  Mn  Mn7  1  0.50614397  0.50009256  0.00010784  1
  As  As8  1  0.40314250  0.62284783  0.74054157  1
  As  As9  1  0.90294601  0.24041110  0.12286188  1
  As  As10  1  0.66263905  0.75943155  0.38226468  1
  As  As11  1  0.16255718  0.88224990  0.25938546  1
  As  As12  1  0.28014004  0.11760950  0.87713856  1
  As  As13  1  0.78032138  0.37716496  0.61775437  1
