# generated using pymatgen
data_CaIBr
_symmetry_space_group_name_H-M   'P 1'
_cell_length_a   5.37318317
_cell_length_b   5.37318264
_cell_length_c   5.37318322
_cell_angle_alpha   60.00000140
_cell_angle_beta   59.99999508
_cell_angle_gamma   60.00000341
_symmetry_Int_Tables_number   1
_chemical_formula_structural   CaIBr
_chemical_formula_sum   'Ca1 I1 Br1'
_cell_volume   109.69324915
_cell_formula_units_Z   1
loop_
 _symmetry_equiv_pos_site_id
 _symmetry_equiv_pos_as_xyz
  1  'x, y, z'
loop_
 _atom_site_type_symbol
 _atom_site_label
 _atom_site_symmetry_multiplicity
 _atom_site_fract_x
 _atom_site_fract_y
 _atom_site_fract_z
 _atom_site_occupancy
  Ca  Ca0  1  0.49999996  0.49999993  0.50000013  1
  I  I1  1  0.00000001  0.00000012  -0.00000016  1
  Br  Br2  1  0.25000003  0.24999996  0.25000003  1
