# generated using pymatgen
data_CaP2Se
_symmetry_space_group_name_H-M   'P 1'
_cell_length_a   3.87044452
_cell_length_b   3.87044349
_cell_length_c   6.67004176
_cell_angle_alpha   90.00001844
_cell_angle_beta   89.99998730
_cell_angle_gamma   120.00000711
_symmetry_Int_Tables_number   1
_chemical_formula_structural   CaP2Se
_chemical_formula_sum   'Ca1 P2 Se1'
_cell_volume   86.53279486
_cell_formula_units_Z   1
loop_
 _symmetry_equiv_pos_site_id
 _symmetry_equiv_pos_as_xyz
  1  'x, y, z'
loop_
 _atom_site_type_symbol
 _atom_site_label
 _atom_site_symmetry_multiplicity
 _atom_site_fract_x
 _atom_site_fract_y
 _atom_site_fract_z
 _atom_site_occupancy
  Ca  Ca0  1  0.00000002  0.00000003  0.49999969  1
  P  P1  1  0.33333319  0.66666653  0.21262352  1
  P  P2  1  0.66666684  0.33333344  0.78737649  1
  Se  Se3  1  -0.00000006  0.00000000  0.00000031  1
