# generated using pymatgen
data_CaPt3C2
_symmetry_space_group_name_H-M   'P 1'
_cell_length_a   7.73178513
_cell_length_b   7.73176991
_cell_length_c   7.73174758
_cell_angle_alpha   109.47084656
_cell_angle_beta   109.47174021
_cell_angle_gamma   109.47089569
_symmetry_Int_Tables_number   1
_chemical_formula_structural   CaPt3C2
_chemical_formula_sum   'Ca4 Pt12 C8'
_cell_volume   355.80777682
_cell_formula_units_Z   4
loop_
 _symmetry_equiv_pos_site_id
 _symmetry_equiv_pos_as_xyz
  1  'x, y, z'
loop_
 _atom_site_type_symbol
 _atom_site_label
 _atom_site_symmetry_multiplicity
 _atom_site_fract_x
 _atom_site_fract_y
 _atom_site_fract_z
 _atom_site_occupancy
  Ca  Ca0  1  0.24998278  0.24998315  0.24998328  1
  Ca  Ca1  1  0.00000057  0.24998509  0.50000020  1
  Ca  Ca2  1  0.24999556  0.50000035  0.00000068  1
  Ca  Ca3  1  0.50000005  -0.00000023  0.24999440  1
  Pt  Pt4  1  0.65565118  0.75000362  0.40565042  1
  Pt  Pt5  1  0.25000209  0.65564651  0.40564647  1
  Pt  Pt6  1  0.75000037  0.84435287  0.09435236  1
  Pt  Pt7  1  0.65564675  0.40564987  0.25000006  1
  Pt  Pt8  1  0.84435188  0.09435244  0.75000286  1
  Pt  Pt9  1  0.40565261  0.25000507  0.65565222  1
  Pt  Pt10  1  0.40564571  0.65564535  0.75000050  1
  Pt  Pt11  1  0.25000117  0.09435239  0.84435059  1
  Pt  Pt12  1  0.09435480  0.84435561  0.25000277  1
  Pt  Pt13  1  0.75000181  0.40564965  0.65564853  1
  Pt  Pt14  1  0.84435256  0.25000338  0.09435439  1
  Pt  Pt15  1  0.09435077  0.75000236  0.84435133  1
  C  C16  1  0.49999839  0.00000020  0.83987433  1
  C  C17  1  0.66012935  0.49999879  0.00000357  1
  C  C18  1  0.83987750  0.83987704  0.83987516  1
  C  C19  1  -0.00000580  0.66012785  0.49999916  1
  C  C20  1  0.50000452  0.00000488  0.66013134  1
  C  C21  1  0.83987189  0.49999942  -0.00000762  1
  C  C22  1  -0.00000035  0.83987695  0.50000227  1
  C  C23  1  0.66013383  0.66012740  0.66013072  1
