# generated using pymatgen
data_CdMoSe2
_symmetry_space_group_name_H-M   'P 1'
_cell_length_a   4.09225056
_cell_length_b   4.09224986
_cell_length_c   6.03378050
_cell_angle_alpha   90.00000689
_cell_angle_beta   89.99998819
_cell_angle_gamma   120.00002819
_symmetry_Int_Tables_number   1
_chemical_formula_structural   CdMoSe2
_chemical_formula_sum   'Cd1 Mo1 Se2'
_cell_volume   87.50731838
_cell_formula_units_Z   1
loop_
 _symmetry_equiv_pos_site_id
 _symmetry_equiv_pos_as_xyz
  1  'x, y, z'
loop_
 _atom_site_type_symbol
 _atom_site_label
 _atom_site_symmetry_multiplicity
 _atom_site_fract_x
 _atom_site_fract_y
 _atom_site_fract_z
 _atom_site_occupancy
  Cd  Cd0  1  -0.00000002  0.00000002  0.50000000  1
  Mo  Mo1  1  0.00000002  -0.00000004  -0.00000001  1
  Se  Se2  1  0.66666666  0.33333334  0.20627149  1
  Se  Se3  1  0.33333334  0.66666668  0.79372852  1
