# generated using pymatgen
data_CdSnC
_symmetry_space_group_name_H-M   'P 1'
_cell_length_a   4.34355198
_cell_length_b   4.34355321
_cell_length_c   4.34355204
_cell_angle_alpha   59.99992329
_cell_angle_beta   59.99994212
_cell_angle_gamma   59.99996148
_symmetry_Int_Tables_number   1
_chemical_formula_structural   CdSnC
_chemical_formula_sum   'Cd1 Sn1 C1'
_cell_volume   57.94548892
_cell_formula_units_Z   1
loop_
 _symmetry_equiv_pos_site_id
 _symmetry_equiv_pos_as_xyz
  1  'x, y, z'
loop_
 _atom_site_type_symbol
 _atom_site_label
 _atom_site_symmetry_multiplicity
 _atom_site_fract_x
 _atom_site_fract_y
 _atom_site_fract_z
 _atom_site_occupancy
  Cd  Cd0  1  0.50000000  0.50000006  0.50000000  1
  Sn  Sn1  1  -0.00000004  -0.00000009  0.00000001  1
  C  C2  1  0.75000004  0.75000003  0.74999999  1
