# generated using pymatgen
data_CdSnN2
_symmetry_space_group_name_H-M   'P 1'
_cell_length_a   3.30222351
_cell_length_b   5.95547870
_cell_length_c   5.86386223
_cell_angle_alpha   88.97580234
_cell_angle_beta   89.99999542
_cell_angle_gamma   89.99998050
_symmetry_Int_Tables_number   1
_chemical_formula_structural   CdSnN2
_chemical_formula_sum   'Cd2 Sn2 N4'
_cell_volume   115.30217725
_cell_formula_units_Z   2
loop_
 _symmetry_equiv_pos_site_id
 _symmetry_equiv_pos_as_xyz
  1  'x, y, z'
loop_
 _atom_site_type_symbol
 _atom_site_label
 _atom_site_symmetry_multiplicity
 _atom_site_fract_x
 _atom_site_fract_y
 _atom_site_fract_z
 _atom_site_occupancy
  Cd  Cd0  1  0.50000070  0.53740070  0.24546620  1
  Cd  Cd1  1  0.49999931  0.46259958  0.75453263  1
  Sn  Sn2  1  -0.00000001  0.00000010  0.00000016  1
  Sn  Sn3  1  0.50000000  -0.00000011  0.50000020  1
  N  N4  1  0.49999993  0.18410575  0.16656806  1
  N  N5  1  -0.00000010  0.20239984  0.67228340  1
  N  N6  1  0.00000012  0.79759998  0.32771689  1
  N  N7  1  0.50000006  0.81589416  0.83343246  1
