# generated using pymatgen
data_CdWC2
_symmetry_space_group_name_H-M   'P 1'
_cell_length_a   7.28892157
_cell_length_b   7.28891528
_cell_length_c   7.28889053
_cell_angle_alpha   106.86384536
_cell_angle_beta   106.86355358
_cell_angle_gamma   106.86412439
_symmetry_Int_Tables_number   1
_chemical_formula_structural   CdWC2
_chemical_formula_sum   'Cd6 W6 C12'
_cell_volume   323.69305853
_cell_formula_units_Z   6
loop_
 _symmetry_equiv_pos_site_id
 _symmetry_equiv_pos_as_xyz
  1  'x, y, z'
loop_
 _atom_site_type_symbol
 _atom_site_label
 _atom_site_symmetry_multiplicity
 _atom_site_fract_x
 _atom_site_fract_y
 _atom_site_fract_z
 _atom_site_occupancy
  Cd  Cd0  1  0.27594629  0.79459220  0.92388824  1
  Cd  Cd1  1  0.79459170  0.92388906  0.27594610  1
  Cd  Cd2  1  0.92388969  0.27594555  0.79459269  1
  Cd  Cd3  1  0.72405372  0.20540781  0.07611177  1
  Cd  Cd4  1  0.20540831  0.07611094  0.72405388  1
  Cd  Cd5  1  0.07611030  0.72405442  0.20540729  1
  W  W6  1  0.11406349  0.35847118  0.47525270  1
  W  W7  1  0.52474684  0.88593834  0.64152996  1
  W  W8  1  0.88593649  0.64152881  0.52474730  1
  W  W9  1  0.35847044  0.47525343  0.11406291  1
  W  W10  1  0.47525316  0.11406165  0.35847005  1
  W  W11  1  0.64152955  0.52474656  0.88593708  1
  C  C12  1  0.20084309  0.12814240  0.38370477  1
  C  C13  1  0.12814017  0.38370280  0.20084220  1
  C  C14  1  0.38370623  0.20084590  0.12814400  1
  C  C15  1  0.79915691  0.87185760  0.61629523  1
  C  C16  1  0.87185983  0.61629720  0.79915780  1
  C  C17  1  0.61629377  0.79915410  0.87185600  1
  C  C18  1  0.81490523  0.29353615  0.44702454  1
  C  C19  1  0.29353653  0.44702336  0.81490419  1
  C  C20  1  0.55297727  0.18509557  0.70646315  1
  C  C21  1  0.18509479  0.70646387  0.55297547  1
  C  C22  1  0.70646347  0.55297665  0.18509583  1
  C  C23  1  0.44702273  0.81490444  0.29353686  1
