# generated using pymatgen
data_CePI
_symmetry_space_group_name_H-M   'P 1'
_cell_length_a   5.03869060
_cell_length_b   5.03868934
_cell_length_c   5.03869150
_cell_angle_alpha   60.00001641
_cell_angle_beta   60.00001875
_cell_angle_gamma   60.00001428
_symmetry_Int_Tables_number   1
_chemical_formula_structural   CePI
_chemical_formula_sum   'Ce1 P1 I1'
_cell_volume   90.45617259
_cell_formula_units_Z   1
loop_
 _symmetry_equiv_pos_site_id
 _symmetry_equiv_pos_as_xyz
  1  'x, y, z'
loop_
 _atom_site_type_symbol
 _atom_site_label
 _atom_site_symmetry_multiplicity
 _atom_site_fract_x
 _atom_site_fract_y
 _atom_site_fract_z
 _atom_site_occupancy
  Ce  Ce0  1  -0.00000013  -0.00000019  0.00000007  1
  P  P1  1  0.25000011  0.25000006  0.24999994  1
  I  I2  1  0.75000002  0.75000013  0.74999999  1
