# generated using pymatgen
data_CoIrN2
_symmetry_space_group_name_H-M   'P 1'
_cell_length_a   2.98832701
_cell_length_b   5.08060968
_cell_length_c   5.66068762
_cell_angle_alpha   78.78017438
_cell_angle_beta   89.99999972
_cell_angle_gamma   90.00000006
_symmetry_Int_Tables_number   1
_chemical_formula_structural   CoIrN2
_chemical_formula_sum   'Co2 Ir2 N4'
_cell_volume   84.30095841
_cell_formula_units_Z   2
loop_
 _symmetry_equiv_pos_site_id
 _symmetry_equiv_pos_as_xyz
  1  'x, y, z'
loop_
 _atom_site_type_symbol
 _atom_site_label
 _atom_site_symmetry_multiplicity
 _atom_site_fract_x
 _atom_site_fract_y
 _atom_site_fract_z
 _atom_site_occupancy
  Co  Co0  1  -0.00000000  0.11351040  0.77567180  1
  Co  Co1  1  0.00000000  0.88649073  0.22432674  1
  Ir  Ir2  1  0.50000000  0.50000111  0.00000000  1
  Ir  Ir3  1  0.49999999  0.49999881  0.50000106  1
  N  N4  1  0.50000000  0.09356869  0.56839854  1
  N  N5  1  0.00000001  0.76238810  0.93092060  1
  N  N6  1  0.00000000  0.23761060  0.06907971  1
  N  N7  1  0.50000000  0.90643157  0.43160154  1
