# generated using pymatgen
data_CoP2Au
_symmetry_space_group_name_H-M   'P 1'
_cell_length_a   3.62513702
_cell_length_b   3.62513589
_cell_length_c   5.24690953
_cell_angle_alpha   90.00066974
_cell_angle_beta   89.99928676
_cell_angle_gamma   119.99996479
_symmetry_Int_Tables_number   1
_chemical_formula_structural   CoP2Au
_chemical_formula_sum   'Co1 P2 Au1'
_cell_volume   59.71495079
_cell_formula_units_Z   1
loop_
 _symmetry_equiv_pos_site_id
 _symmetry_equiv_pos_as_xyz
  1  'x, y, z'
loop_
 _atom_site_type_symbol
 _atom_site_label
 _atom_site_symmetry_multiplicity
 _atom_site_fract_x
 _atom_site_fract_y
 _atom_site_fract_z
 _atom_site_occupancy
  Co  Co0  1  -0.00000000  -0.00000004  0.00000001  1
  P  P1  1  0.33333197  0.66666799  0.17326177  1
  P  P2  1  0.66666803  0.33333198  0.82673821  1
  Au  Au3  1  0.00000001  0.00000006  0.50000001  1
