# generated using pymatgen
data_CoSb2Se
_symmetry_space_group_name_H-M   'P 1'
_cell_length_a   8.91853010
_cell_length_b   8.91980040
_cell_length_c   8.91915037
_cell_angle_alpha   108.00174695
_cell_angle_beta   108.00042416
_cell_angle_gamma   108.01097675
_symmetry_Int_Tables_number   1
_chemical_formula_structural   CoSb2Se
_chemical_formula_sum   'Co6 Sb12 Se6'
_cell_volume   573.94589188
_cell_formula_units_Z   6
loop_
 _symmetry_equiv_pos_site_id
 _symmetry_equiv_pos_as_xyz
  1  'x, y, z'
loop_
 _atom_site_type_symbol
 _atom_site_label
 _atom_site_symmetry_multiplicity
 _atom_site_fract_x
 _atom_site_fract_y
 _atom_site_fract_z
 _atom_site_occupancy
  Co  Co0  1  0.56306924  0.24366230  0.49596755  1
  Co  Co1  1  0.24365400  0.49595757  0.56306204  1
  Co  Co2  1  0.49598542  0.56306064  0.24365855  1
  Co  Co3  1  0.43695684  0.75634873  0.50406610  1
  Co  Co4  1  0.75636558  0.50407163  0.43696200  1
  Co  Co5  1  0.50404000  0.43696408  0.75636013  1
  Sb  Sb6  1  0.69969968  0.53932543  0.09354077  1
  Sb  Sb7  1  0.09361033  0.69971198  0.53934181  1
  Sb  Sb8  1  0.46060947  0.90645101  0.30032431  1
  Sb  Sb9  1  0.53936325  0.09353817  0.69967827  1
  Sb  Sb10  1  0.30030264  0.46064751  0.90645723  1
  Sb  Sb11  1  0.90639203  0.30029705  0.46062877  1
  Sb  Sb12  1  0.54477774  0.74561209  0.80199920  1
  Sb  Sb13  1  0.80199797  0.54476122  0.74560433  1
  Sb  Sb14  1  0.74563696  0.80199726  0.54475673  1
  Sb  Sb15  1  0.45523732  0.25440790  0.19803749  1
  Sb  Sb16  1  0.19803090  0.45525526  0.25441364  1
  Sb  Sb17  1  0.25438890  0.19803699  0.45526429  1
  Se  Se18  1  0.23074497  0.08505461  0.71414703  1
  Se  Se19  1  0.76921085  0.91491172  0.28583366  1
  Se  Se20  1  0.91503230  0.28589086  0.76929343  1
  Se  Se21  1  0.28585667  0.76922157  0.91494674  1
  Se  Se22  1  0.08491997  0.71408431  0.23064732  1
  Se  Se23  1  0.71411698  0.23073012  0.08500861  1
