# generated using pymatgen
data_CoSiRh
_symmetry_space_group_name_H-M   'P 1'
_cell_length_a   3.85841279
_cell_length_b   3.85841237
_cell_length_c   3.85841284
_cell_angle_alpha   59.99988487
_cell_angle_beta   59.99988883
_cell_angle_gamma   59.99988671
_symmetry_Int_Tables_number   1
_chemical_formula_structural   CoSiRh
_chemical_formula_sum   'Co1 Si1 Rh1'
_cell_volume   40.61719353
_cell_formula_units_Z   1
loop_
 _symmetry_equiv_pos_site_id
 _symmetry_equiv_pos_as_xyz
  1  'x, y, z'
loop_
 _atom_site_type_symbol
 _atom_site_label
 _atom_site_symmetry_multiplicity
 _atom_site_fract_x
 _atom_site_fract_y
 _atom_site_fract_z
 _atom_site_occupancy
  Co  Co0  1  -0.00000001  0.00000004  0.00000000  1
  Si  Si1  1  0.25000002  0.25000002  0.25000003  1
  Rh  Rh2  1  0.49999998  0.49999994  0.49999997  1
