# generated using pymatgen
data_CoTe2Au
_symmetry_space_group_name_H-M   'P 1'
_cell_length_a   3.85019816
_cell_length_b   8.21376140
_cell_length_c   7.36440994
_cell_angle_alpha   112.58091997
_cell_angle_beta   97.02924291
_cell_angle_gamma   64.75685887
_symmetry_Int_Tables_number   1
_chemical_formula_structural   CoTe2Au
_chemical_formula_sum   'Co2 Te4 Au2'
_cell_volume   194.26820093
_cell_formula_units_Z   2
loop_
 _symmetry_equiv_pos_site_id
 _symmetry_equiv_pos_as_xyz
  1  'x, y, z'
loop_
 _atom_site_type_symbol
 _atom_site_label
 _atom_site_symmetry_multiplicity
 _atom_site_fract_x
 _atom_site_fract_y
 _atom_site_fract_z
 _atom_site_occupancy
  Co  Co0  1  0.00012834  -0.00006031  0.50034350  1
  Co  Co1  1  0.00005331  0.49993371  0.49994336  1
  Te  Te2  1  0.60327458  0.33706930  0.26803413  1
  Te  Te3  1  0.33014938  0.23033462  0.64920672  1
  Te  Te4  1  -0.33017620  0.76969156  0.35090988  1
  Te  Te5  1  0.39675183  0.66288380  0.73180540  1
  Au  Au6  1  0.49987775  0.50007953  0.00000841  1
  Au  Au7  1  -0.00005898  0.00006779  -0.00025140  1
