# generated using pymatgen
data_CrBiC2
_symmetry_space_group_name_H-M   'P 1'
_cell_length_a   3.73111078
_cell_length_b   5.84471884
_cell_length_c   7.64835653
_cell_angle_alpha   50.10917180
_cell_angle_beta   90.03739283
_cell_angle_gamma   90.00727963
_symmetry_Int_Tables_number   1
_chemical_formula_structural   CrBiC2
_chemical_formula_sum   'Cr2 Bi2 C4'
_cell_volume   127.97252957
_cell_formula_units_Z   2
loop_
 _symmetry_equiv_pos_site_id
 _symmetry_equiv_pos_as_xyz
  1  'x, y, z'
loop_
 _atom_site_type_symbol
 _atom_site_label
 _atom_site_symmetry_multiplicity
 _atom_site_fract_x
 _atom_site_fract_y
 _atom_site_fract_z
 _atom_site_occupancy
  Cr  Cr0  1  -0.00000023  0.50000019  -0.00000000  1
  Cr  Cr1  1  -0.00000077  0.50000008  0.50000046  1
  Bi  Bi2  1  0.50000043  0.00000055  0.49999969  1
  Bi  Bi3  1  -0.00000003  -0.00000035  0.00000049  1
  C  C4  1  0.00022886  0.59904106  0.71079123  1
  C  C5  1  0.50004809  0.34722912  0.58498636  1
  C  C6  1  0.49995142  0.65277281  0.41501249  1
  C  C7  1  -0.00022778  0.40095655  0.28920929  1
