# generated using pymatgen
data_CrHCl2
_symmetry_space_group_name_H-M   'P 1'
_cell_length_a   6.36632423
_cell_length_b   7.38449099
_cell_length_c   12.97918190
_cell_angle_alpha   82.96615560
_cell_angle_beta   87.68187576
_cell_angle_gamma   125.42036687
_symmetry_Int_Tables_number   1
_chemical_formula_structural   CrHCl2
_chemical_formula_sum   'Cr6 H6 Cl12'
_cell_volume   488.79985905
_cell_formula_units_Z   6
loop_
 _symmetry_equiv_pos_site_id
 _symmetry_equiv_pos_as_xyz
  1  'x, y, z'
loop_
 _atom_site_type_symbol
 _atom_site_label
 _atom_site_symmetry_multiplicity
 _atom_site_fract_x
 _atom_site_fract_y
 _atom_site_fract_z
 _atom_site_occupancy
  Cr  Cr0  1  0.49999999  -0.00000023  0.50000019  1
  Cr  Cr1  1  -0.00000001  0.50000054  0.00000000  1
  Cr  Cr2  1  0.66682463  0.83269177  -0.00003110  1
  Cr  Cr3  1  0.33317510  0.16730857  0.00003112  1
  Cr  Cr4  1  0.16223352  0.33141286  0.50009600  1
  Cr  Cr5  1  0.83776651  0.66858633  0.49990381  1
  H  H6  1  0.58432130  0.41587458  0.25408533  1
  H  H7  1  0.41567972  0.58412518  0.74591394  1
  H  H8  1  0.91098593  0.08376719  0.24805623  1
  H  H9  1  0.08901407  0.91623233  0.75194369  1
  H  H10  1  0.26420049  0.75167949  0.24820528  1
  H  H11  1  0.73579927  0.24832162  0.75179530  1
  Cl  Cl12  1  0.79449499  0.99913145  0.60573479  1
  Cl  Cl13  1  0.20550408  0.00086706  0.39426521  1
  Cl  Cl14  1  0.03576893  0.16657672  0.89488404  1
  Cl  Cl15  1  0.96423093  0.83342284  0.10511620  1
  Cl  Cl16  1  0.63058921  0.16764060  0.10488105  1
  Cl  Cl17  1  0.36940963  0.83235966  0.89511886  1
  Cl  Cl18  1  0.86672974  0.33315458  0.39435446  1
  Cl  Cl19  1  0.13327089  0.66684614  0.60564588  1
  Cl  Cl20  1  0.53553886  0.66626775  0.39612580  1
  Cl  Cl21  1  0.46446189  0.33373176  0.60387394  1
  Cl  Cl22  1  0.29755538  0.49857335  0.10475069  1
  Cl  Cl23  1  0.70244498  0.50142786  0.89524927  1
