# generated using pymatgen
data_CrPdS2
_symmetry_space_group_name_H-M   'P 1'
_cell_length_a   3.47187379
_cell_length_b   6.59790494
_cell_length_c   6.22158971
_cell_angle_alpha   74.70758665
_cell_angle_beta   90.00142342
_cell_angle_gamma   89.99951041
_symmetry_Int_Tables_number   1
_chemical_formula_structural   CrPdS2
_chemical_formula_sum   'Cr2 Pd2 S4'
_cell_volume   137.47228905
_cell_formula_units_Z   2
loop_
 _symmetry_equiv_pos_site_id
 _symmetry_equiv_pos_as_xyz
  1  'x, y, z'
loop_
 _atom_site_type_symbol
 _atom_site_label
 _atom_site_symmetry_multiplicity
 _atom_site_fract_x
 _atom_site_fract_y
 _atom_site_fract_z
 _atom_site_occupancy
  Cr  Cr0  1  0.00000003  0.00000065  -0.00000274  1
  Cr  Cr1  1  0.50000002  -0.00000021  0.49999745  1
  Pd  Pd2  1  0.50001601  0.56651030  0.69325421  1
  Pd  Pd3  1  0.49998393  0.43348415  0.30676384  1
  S  S4  1  -0.00001868  0.20300491  0.26209557  1
  S  S5  1  0.49998669  0.19749015  0.77720085  1
  S  S6  1  0.50001337  0.80250801  0.22279220  1
  S  S7  1  0.00001864  0.79700204  0.73789862  1
