# generated using pymatgen
data_CrSb4Ir
_symmetry_space_group_name_H-M   'P 1'
_cell_length_a   6.13027497
_cell_length_b   5.91625165
_cell_length_c   7.24380341
_cell_angle_alpha   89.99020512
_cell_angle_beta   89.99722664
_cell_angle_gamma   90.31865811
_symmetry_Int_Tables_number   1
_chemical_formula_structural   CrSb4Ir
_chemical_formula_sum   'Cr2 Sb8 Ir2'
_cell_volume   262.71600157
_cell_formula_units_Z   2
loop_
 _symmetry_equiv_pos_site_id
 _symmetry_equiv_pos_as_xyz
  1  'x, y, z'
loop_
 _atom_site_type_symbol
 _atom_site_label
 _atom_site_symmetry_multiplicity
 _atom_site_fract_x
 _atom_site_fract_y
 _atom_site_fract_z
 _atom_site_occupancy
  Cr  Cr0  1  0.50001147  0.74986169  0.41487231  1
  Cr  Cr1  1  0.50003821  0.24995939  0.58513895  1
  Sb  Sb2  1  0.80394353  0.05019124  0.38980158  1
  Sb  Sb3  1  0.19613857  0.44962567  0.38966646  1
  Sb  Sb4  1  0.80400889  0.55024849  0.61022117  1
  Sb  Sb5  1  0.19618533  -0.05031601  0.61028570  1
  Sb  Sb6  1  0.68902886  0.56000388  0.12596879  1
  Sb  Sb7  1  0.31100212  0.44001893  0.87376887  1
  Sb  Sb8  1  0.68907164  0.06008062  0.87403256  1
  Sb  Sb9  1  0.31098655  0.93994186  0.12623788  1
  Ir  Ir10  1  -0.00019795  0.75019918  0.90473634  1
  Ir  Ir11  1  -0.00021822  0.25018706  0.09527139  1
