# generated using pymatgen
data_CsAsS2
_symmetry_space_group_name_H-M   'P 1'
_cell_length_a   10.33082490
_cell_length_b   10.33008767
_cell_length_c   10.33166018
_cell_angle_alpha   101.42738187
_cell_angle_beta   101.42308444
_cell_angle_gamma   101.42112771
_symmetry_Int_Tables_number   1
_chemical_formula_structural   CsAsS2
_chemical_formula_sum   'Cs6 As6 S12'
_cell_volume   1026.50485132
_cell_formula_units_Z   6
loop_
 _symmetry_equiv_pos_site_id
 _symmetry_equiv_pos_as_xyz
  1  'x, y, z'
loop_
 _atom_site_type_symbol
 _atom_site_label
 _atom_site_symmetry_multiplicity
 _atom_site_fract_x
 _atom_site_fract_y
 _atom_site_fract_z
 _atom_site_occupancy
  Cs  Cs0  1  0.31591930  0.74542801  0.90564283  1
  Cs  Cs1  1  0.74542838  0.90564247  0.31591808  1
  Cs  Cs2  1  0.90564169  0.31591891  0.74542837  1
  Cs  Cs3  1  0.68408049  0.25457189  0.09435713  1
  Cs  Cs4  1  0.25457169  0.09435783  0.68408181  1
  Cs  Cs5  1  0.09435866  0.68408105  0.25457178  1
  As  As6  1  0.10970207  0.28643635  0.35793493  1
  As  As7  1  0.64206696  0.89035992  0.71357169  1
  As  As8  1  0.89031574  0.71356920  0.64206549  1
  As  As9  1  0.28645130  0.35792481  0.10972378  1
  As  As10  1  0.35793286  0.10965055  0.28643162  1
  As  As11  1  0.71354966  0.64207527  0.89027919  1
  S  S12  1  0.13545845  0.06275120  0.31574533  1
  S  S13  1  0.06273868  0.31574428  0.13544800  1
  S  S14  1  0.31574454  0.13545706  0.06274788  1
  S  S15  1  0.86453987  0.93724526  0.68425426  1
  S  S16  1  0.93725962  0.68425587  0.86454925  1
  S  S17  1  0.68425518  0.86454214  0.93725006  1
  S  S18  1  0.90791151  0.25419327  0.39752769  1
  S  S19  1  0.25419010  0.39753293  0.90788702  1
  S  S20  1  0.60248091  0.09203272  0.74579573  1
  S  S21  1  0.09207266  0.74580364  0.60247460  1
  S  S22  1  0.74580939  0.60246724  0.09211107  1
  S  S23  1  0.39752031  0.90795814  0.25420239  1
