# generated using pymatgen
data_CsCdP
_symmetry_space_group_name_H-M   'P 1'
_cell_length_a   5.70265453
_cell_length_b   5.70265446
_cell_length_c   5.70265445
_cell_angle_alpha   59.99996390
_cell_angle_beta   59.99996070
_cell_angle_gamma   59.99996345
_symmetry_Int_Tables_number   1
_chemical_formula_structural   CsCdP
_chemical_formula_sum   'Cs1 Cd1 P1'
_cell_volume   131.13415167
_cell_formula_units_Z   1
loop_
 _symmetry_equiv_pos_site_id
 _symmetry_equiv_pos_as_xyz
  1  'x, y, z'
loop_
 _atom_site_type_symbol
 _atom_site_label
 _atom_site_symmetry_multiplicity
 _atom_site_fract_x
 _atom_site_fract_y
 _atom_site_fract_z
 _atom_site_occupancy
  Cs  Cs0  1  0.25000002  0.25000008  0.25000000  1
  Cd  Cd1  1  0.00000000  -0.00000004  -0.00000003  1
  P  P2  1  0.49999998  0.49999997  0.50000003  1
