# generated using pymatgen
data_CsLiCl2
_symmetry_space_group_name_H-M   'P 1'
_cell_length_a   7.63243114
_cell_length_b   7.63242958
_cell_length_c   7.36367855
_cell_angle_alpha   61.23099235
_cell_angle_beta   61.23236889
_cell_angle_gamma   36.18876249
_symmetry_Int_Tables_number   1
_chemical_formula_structural   CsLiCl2
_chemical_formula_sum   'Cs2 Li2 Cl4'
_cell_volume   218.41712552
_cell_formula_units_Z   2
loop_
 _symmetry_equiv_pos_site_id
 _symmetry_equiv_pos_as_xyz
  1  'x, y, z'
loop_
 _atom_site_type_symbol
 _atom_site_label
 _atom_site_symmetry_multiplicity
 _atom_site_fract_x
 _atom_site_fract_y
 _atom_site_fract_z
 _atom_site_occupancy
  Cs  Cs0  1  0.55476107  0.44523919  0.74999219  1
  Cs  Cs1  1  0.44524262  0.55475871  0.24999542  1
  Li  Li2  1  0.50001051  -0.00000994  0.50000701  1
  Li  Li3  1  -0.00001464  0.50001752  0.00000871  1
  Cl  Cl4  1  0.14531297  0.15246938  0.34756625  1
  Cl  Cl5  1  0.84751995  0.85468585  0.15244075  1
  Cl  Cl6  1  0.15247573  0.14531571  0.84755831  1
  Cl  Cl7  1  0.85469179  0.84752358  0.65243136  1
