# generated using pymatgen
data_CsLuS2
_symmetry_space_group_name_H-M   'P 1'
_cell_length_a   4.00216993
_cell_length_b   6.92430772
_cell_length_c   10.59071877
_cell_angle_alpha   50.34765976
_cell_angle_beta   89.99940813
_cell_angle_gamma   89.99951555
_symmetry_Int_Tables_number   1
_chemical_formula_structural   CsLuS2
_chemical_formula_sum   'Cs2 Lu2 S4'
_cell_volume   225.96902771
_cell_formula_units_Z   2
loop_
 _symmetry_equiv_pos_site_id
 _symmetry_equiv_pos_as_xyz
  1  'x, y, z'
loop_
 _atom_site_type_symbol
 _atom_site_label
 _atom_site_symmetry_multiplicity
 _atom_site_fract_x
 _atom_site_fract_y
 _atom_site_fract_z
 _atom_site_occupancy
  Cs  Cs0  1  -0.00000137  0.50000063  0.00000072  1
  Cs  Cs1  1  0.49999658  0.00000365  -0.00000080  1
  Lu  Lu2  1  0.00000224  -0.00000190  0.50000099  1
  Lu  Lu3  1  0.49999898  0.49999976  0.49999923  1
  S  S4  1  0.49999752  -0.00705376  0.67740191  1
  S  S5  1  0.00000434  0.50789557  0.32231019  1
  S  S6  1  0.50000717  0.00705214  0.32259943  1
  S  S7  1  -0.00000547  0.49210390  0.67768832  1
