# generated using pymatgen
data_CsMnS2
_symmetry_space_group_name_H-M   'P 1'
_cell_length_a   7.69576857
_cell_length_b   7.69569997
_cell_length_c   16.13476149
_cell_angle_alpha   83.27071805
_cell_angle_beta   83.27079272
_cell_angle_gamma   89.99117317
_symmetry_Int_Tables_number   1
_chemical_formula_structural   CsMnS2
_chemical_formula_sum   'Cs8 Mn8 S16'
_cell_volume   942.36052127
_cell_formula_units_Z   8
loop_
 _symmetry_equiv_pos_site_id
 _symmetry_equiv_pos_as_xyz
  1  'x, y, z'
loop_
 _atom_site_type_symbol
 _atom_site_label
 _atom_site_symmetry_multiplicity
 _atom_site_fract_x
 _atom_site_fract_y
 _atom_site_fract_z
 _atom_site_occupancy
  Cs  Cs0  1  0.15196720  0.77715614  0.89215859  1
  Cs  Cs1  1  0.22284544  0.84803412  0.60783803  1
  Cs  Cs2  1  0.84803475  0.22284409  0.10783808  1
  Cs  Cs3  1  0.77715610  0.15196546  0.39215938  1
  Cs  Cs4  1  0.22465007  0.34668544  0.60230594  1
  Cs  Cs5  1  0.65331532  0.77535129  0.89769155  1
  Cs  Cs6  1  0.77535082  0.65331642  0.39769373  1
  Cs  Cs7  1  0.34668522  0.22464885  0.10230559  1
  Mn  Mn8  1  0.91106148  0.29220305  0.83368486  1
  Mn  Mn9  1  0.70779696  0.08893115  0.66631480  1
  Mn  Mn10  1  0.08892627  0.70779126  0.16631829  1
  Mn  Mn11  1  0.29220664  0.91107545  0.33368419  1
  Mn  Mn12  1  0.70787149  0.57650098  0.66602379  1
  Mn  Mn13  1  0.42349985  0.29212537  0.83397870  1
  Mn  Mn14  1  0.29212920  0.42349954  0.33397602  1
  Mn  Mn15  1  0.57650186  0.70787264  0.16602445  1
  S  S16  1  0.92810667  0.55055591  0.74937989  1
  S  S17  1  0.44944313  0.07189263  0.75062049  1
  S  S18  1  0.07188811  0.44944274  0.25061869  1
  S  S19  1  0.55055722  0.92810916  0.24938139  1
  S  S20  1  0.14821746  0.27301743  0.90756723  1
  S  S21  1  0.72698248  0.85177840  0.59243377  1
  S  S22  1  0.85177757  0.72698255  0.09243229  1
  S  S23  1  0.27301767  0.14822366  0.40756966  1
  S  S24  1  0.92613086  0.07386949  0.74999995  1
  S  S25  1  0.07387125  0.92612694  0.25000015  1
  S  S26  1  0.64743298  0.26990578  0.91908764  1
  S  S27  1  0.73009519  0.35256665  0.58091249  1
  S  S28  1  0.35256817  0.73009480  0.08091249  1
  S  S29  1  0.26990625  0.64743530  0.41908818  1
  S  S30  1  0.44783978  0.55215825  0.75000105  1
  S  S31  1  0.55216657  0.44783906  0.24999866  1
