# generated using pymatgen
data_CsOsS2
_symmetry_space_group_name_H-M   'P 1'
_cell_length_a   3.76874676
_cell_length_b   3.76874740
_cell_length_c   7.55424129
_cell_angle_alpha   89.99997482
_cell_angle_beta   90.00004648
_cell_angle_gamma   120.00003666
_symmetry_Int_Tables_number   1
_chemical_formula_structural   CsOsS2
_chemical_formula_sum   'Cs1 Os1 S2'
_cell_volume   92.92130704
_cell_formula_units_Z   1
loop_
 _symmetry_equiv_pos_site_id
 _symmetry_equiv_pos_as_xyz
  1  'x, y, z'
loop_
 _atom_site_type_symbol
 _atom_site_label
 _atom_site_symmetry_multiplicity
 _atom_site_fract_x
 _atom_site_fract_y
 _atom_site_fract_z
 _atom_site_occupancy
  Cs  Cs0  1  -0.00000001  -0.00000002  -0.00000000  1
  Os  Os1  1  0.00000000  0.00000001  0.50000000  1
  S  S2  1  0.33333293  0.66666673  0.35508501  1
  S  S3  1  0.66666708  0.33333328  0.64491499  1
