# generated using pymatgen
data_CsRbF2
_symmetry_space_group_name_H-M   'P 1'
_cell_length_a   4.23246094
_cell_length_b   7.31800073
_cell_length_c   7.38978728
_cell_angle_alpha   99.08224729
_cell_angle_beta   90.00007696
_cell_angle_gamma   90.00012490
_symmetry_Int_Tables_number   1
_chemical_formula_structural   CsRbF2
_chemical_formula_sum   'Cs2 Rb2 F4'
_cell_volume   226.01542103
_cell_formula_units_Z   2
loop_
 _symmetry_equiv_pos_site_id
 _symmetry_equiv_pos_as_xyz
  1  'x, y, z'
loop_
 _atom_site_type_symbol
 _atom_site_label
 _atom_site_symmetry_multiplicity
 _atom_site_fract_x
 _atom_site_fract_y
 _atom_site_fract_z
 _atom_site_occupancy
  Cs  Cs0  1  0.00000002  -0.00000004  0.00000009  1
  Cs  Cs1  1  0.49999999  0.00000006  0.50000014  1
  Rb  Rb2  1  0.49999862  0.55633383  0.75489733  1
  Rb  Rb3  1  0.50000127  0.44366610  0.24510249  1
  F  F4  1  0.00000103  0.24919687  0.37008065  1
  F  F5  1  0.50000059  0.24209067  0.89449879  1
  F  F6  1  0.49999942  0.75790922  0.10550105  1
  F  F7  1  -0.00000096  0.75080328  0.62991946  1
