# generated using pymatgen
data_CsTbS2
_symmetry_space_group_name_H-M   'P 1'
_cell_length_a   10.34374599
_cell_length_b   10.34380308
_cell_length_c   10.34366680
_cell_angle_alpha   109.74230505
_cell_angle_beta   109.74362738
_cell_angle_gamma   109.74315107
_symmetry_Int_Tables_number   1
_chemical_formula_structural   CsTbS2
_chemical_formula_sum   'Cs6 Tb6 S12'
_cell_volume   843.26099060
_cell_formula_units_Z   6
loop_
 _symmetry_equiv_pos_site_id
 _symmetry_equiv_pos_as_xyz
  1  'x, y, z'
loop_
 _atom_site_type_symbol
 _atom_site_label
 _atom_site_symmetry_multiplicity
 _atom_site_fract_x
 _atom_site_fract_y
 _atom_site_fract_z
 _atom_site_occupancy
  Cs  Cs0  1  0.38855351  0.09505368  0.34215707  1
  Cs  Cs1  1  0.09505328  0.34215683  0.38855295  1
  Cs  Cs2  1  0.34215685  0.38855309  0.09505360  1
  Cs  Cs3  1  0.61144646  0.90494631  0.65784290  1
  Cs  Cs4  1  0.90494671  0.65784316  0.61144705  1
  Cs  Cs5  1  0.65784317  0.61144692  0.90494639  1
  Tb  Tb6  1  0.20600785  0.00296135  0.63416001  1
  Tb  Tb7  1  0.79399214  -0.00296135  0.36584000  1
  Tb  Tb8  1  -0.00296410  0.36583917  0.79398993  1
  Tb  Tb9  1  0.36584383  0.79399972  -0.00295785  1
  Tb  Tb10  1  0.00296410  0.63416084  0.20601007  1
  Tb  Tb11  1  0.63415617  0.20600028  0.00295785  1
  S  S12  1  0.72946423  0.49742663  0.20184875  1
  S  S13  1  0.20184294  0.72946131  0.49741866  1
  S  S14  1  0.50257773  0.79815404  0.27053695  1
  S  S15  1  0.49742227  0.20184596  0.72946304  1
  S  S16  1  0.27053578  0.50257336  0.79815124  1
  S  S17  1  0.79815705  0.27053869  0.50258135  1
  S  S18  1  0.67532681  0.98100773  0.07264880  1
  S  S19  1  0.07264794  0.67532721  0.98100797  1
  S  S20  1  0.98100694  0.07264823  0.67532665  1
  S  S21  1  0.32467320  0.01899226  -0.07264880  1
  S  S22  1  -0.07264792  0.32467280  0.01899203  1
  S  S23  1  0.01899306  -0.07264823  0.32467336  1
