# generated using pymatgen
data_CsTlF2
_symmetry_space_group_name_H-M   'P 1'
_cell_length_a   4.04455150
_cell_length_b   4.04455056
_cell_length_c   7.25998174
_cell_angle_alpha   89.99990652
_cell_angle_beta   90.00009333
_cell_angle_gamma   120.00038815
_symmetry_Int_Tables_number   1
_chemical_formula_structural   CsTlF2
_chemical_formula_sum   'Cs1 Tl1 F2'
_cell_volume   102.85019033
_cell_formula_units_Z   1
loop_
 _symmetry_equiv_pos_site_id
 _symmetry_equiv_pos_as_xyz
  1  'x, y, z'
loop_
 _atom_site_type_symbol
 _atom_site_label
 _atom_site_symmetry_multiplicity
 _atom_site_fract_x
 _atom_site_fract_y
 _atom_site_fract_z
 _atom_site_occupancy
  Cs  Cs0  1  0.00000001  0.00000000  -0.00000000  1
  Tl  Tl1  1  0.00000000  0.00000001  0.50000001  1
  F  F2  1  0.33333319  0.66666679  0.26438964  1
  F  F3  1  0.66666679  0.33333320  0.73561036  1
