# generated using pymatgen
data_CsTmN
_symmetry_space_group_name_H-M   'P 1'
_cell_length_a   4.69924573
_cell_length_b   4.69924492
_cell_length_c   4.69924476
_cell_angle_alpha   59.99999644
_cell_angle_beta   59.99998883
_cell_angle_gamma   59.99999336
_symmetry_Int_Tables_number   1
_chemical_formula_structural   CsTmN
_chemical_formula_sum   'Cs1 Tm1 N1'
_cell_volume   73.37856836
_cell_formula_units_Z   1
loop_
 _symmetry_equiv_pos_site_id
 _symmetry_equiv_pos_as_xyz
  1  'x, y, z'
loop_
 _atom_site_type_symbol
 _atom_site_label
 _atom_site_symmetry_multiplicity
 _atom_site_fract_x
 _atom_site_fract_y
 _atom_site_fract_z
 _atom_site_occupancy
  Cs  Cs0  1  0.24999998  0.25000002  0.24999996  1
  Tm  Tm1  1  0.50000004  0.50000001  0.50000006  1
  N  N2  1  -0.00000001  -0.00000003  -0.00000002  1
