# generated using pymatgen
data_CsV2As3
_symmetry_space_group_name_H-M   'P 1'
_cell_length_a   9.40016307
_cell_length_b   9.40225958
_cell_length_c   9.40490966
_cell_angle_alpha   109.49322963
_cell_angle_beta   109.48411832
_cell_angle_gamma   109.47234791
_symmetry_Int_Tables_number   1
_chemical_formula_structural   CsV2As3
_chemical_formula_sum   'Cs4 V8 As12'
_cell_volume   639.59795572
_cell_formula_units_Z   4
loop_
 _symmetry_equiv_pos_site_id
 _symmetry_equiv_pos_as_xyz
  1  'x, y, z'
loop_
 _atom_site_type_symbol
 _atom_site_label
 _atom_site_symmetry_multiplicity
 _atom_site_fract_x
 _atom_site_fract_y
 _atom_site_fract_z
 _atom_site_occupancy
  Cs  Cs0  1  0.25002048  0.25002469  0.25001234  1
  Cs  Cs1  1  0.00003380  0.24998328  0.49999792  1
  Cs  Cs2  1  0.24990355  0.49996378  0.00000263  1
  Cs  Cs3  1  0.49998143  -0.00000768  0.24997052  1
  V  V4  1  0.49990642  -0.00009908  0.86037094  1
  V  V5  1  0.63962330  0.50010766  0.00018644  1
  V  V6  1  0.86047063  0.86061032  0.86058643  1
  V  V7  1  0.00015726  0.63973153  0.50030611  1
  V  V8  1  0.50004772  0.00007548  0.63952343  1
  V  V9  1  0.86038605  0.49985387  -0.00018004  1
  V  V10  1  -0.00012856  0.86035676  0.49970451  1
  V  V11  1  0.63970150  0.63958075  0.63958230  1
  As  As12  1  0.69853729  0.74996730  0.44857429  1
  As  As13  1  0.24997887  0.69857746  0.44862247  1
  As  As14  1  0.75000756  0.80143511  0.05139183  1
  As  As15  1  0.69863514  0.44873186  0.25006009  1
  As  As16  1  0.80150019  0.05147737  0.75007228  1
  As  As17  1  0.44865189  0.25002103  0.69867514  1
  As  As18  1  0.44864868  0.69859706  0.74998880  1
  As  As19  1  0.24987232  0.05118767  0.80125122  1
  As  As20  1  0.05137162  0.80144832  0.24991623  1
  As  As21  1  0.74996323  0.44842395  0.69846945  1
  As  As22  1  0.80140017  0.25001160  0.05139101  1
  As  As23  1  0.05132947  0.74993992  0.80152366  1
