# generated using pymatgen
data_Cu3AsO3
_symmetry_space_group_name_H-M   'P 1'
_cell_length_a   6.16031294
_cell_length_b   6.16037871
_cell_length_c   5.39168921
_cell_angle_alpha   73.02614370
_cell_angle_beta   73.03037894
_cell_angle_gamma   112.16042181
_symmetry_Int_Tables_number   1
_chemical_formula_structural   Cu3AsO3
_chemical_formula_sum   'Cu6 As2 O6'
_cell_volume   161.50616603
_cell_formula_units_Z   2
loop_
 _symmetry_equiv_pos_site_id
 _symmetry_equiv_pos_as_xyz
  1  'x, y, z'
loop_
 _atom_site_type_symbol
 _atom_site_label
 _atom_site_symmetry_multiplicity
 _atom_site_fract_x
 _atom_site_fract_y
 _atom_site_fract_z
 _atom_site_occupancy
  Cu  Cu0  1  0.55774366  0.77968106  0.96929663  1
  Cu  Cu1  1  0.78148267  0.21850586  0.25000177  1
  Cu  Cu2  1  0.44226786  0.22031765  0.03071105  1
  Cu  Cu3  1  0.21850948  0.78148284  0.75000848  1
  Cu  Cu4  1  0.77966322  0.55770922  0.46930149  1
  Cu  Cu5  1  0.22032946  0.44228167  0.53069259  1
  As  As6  1  0.00000503  0.00000297  0.50000086  1
  As  As7  1  -0.00000348  0.00001067  -0.00000416  1
  O  O8  1  0.04714557  0.52300828  0.22668554  1
  O  O9  1  0.52197319  0.47804772  0.25002044  1
  O  O10  1  0.52300246  0.04713915  0.72669892  1
  O  O11  1  0.47698301  0.95282355  0.27330519  1
  O  O12  1  0.47804235  0.52197832  0.75001018  1
  O  O13  1  0.95285553  0.47701104  0.77327102  1
