# generated using pymatgen
data_CuOsS2
_symmetry_space_group_name_H-M   'P 1'
_cell_length_a   3.69395449
_cell_length_b   3.69395421
_cell_length_c   5.26631634
_cell_angle_alpha   90.01760140
_cell_angle_beta   89.98241287
_cell_angle_gamma   119.99292619
_symmetry_Int_Tables_number   1
_chemical_formula_structural   CuOsS2
_chemical_formula_sum   'Cu1 Os1 S2'
_cell_volume   62.23741527
_cell_formula_units_Z   1
loop_
 _symmetry_equiv_pos_site_id
 _symmetry_equiv_pos_as_xyz
  1  'x, y, z'
loop_
 _atom_site_type_symbol
 _atom_site_label
 _atom_site_symmetry_multiplicity
 _atom_site_fract_x
 _atom_site_fract_y
 _atom_site_fract_z
 _atom_site_occupancy
  Cu  Cu0  1  -0.00000002  -0.00000003  0.00000001  1
  Os  Os1  1  0.00000001  0.00000001  0.50000002  1
  S  S2  1  0.66658589  0.33341419  0.71642126  1
  S  S3  1  0.33341412  0.66658582  0.28357872  1
