# generated using pymatgen
data_CuSi2Mo3
_symmetry_space_group_name_H-M   'P 1'
_cell_length_a   7.82095855
_cell_length_b   7.82094894
_cell_length_c   7.82095135
_cell_angle_alpha   109.47100871
_cell_angle_beta   109.47152995
_cell_angle_gamma   109.47171968
_symmetry_Int_Tables_number   1
_chemical_formula_structural   CuSi2Mo3
_chemical_formula_sum   'Cu4 Si8 Mo12'
_cell_volume   368.25947640
_cell_formula_units_Z   4
loop_
 _symmetry_equiv_pos_site_id
 _symmetry_equiv_pos_as_xyz
  1  'x, y, z'
loop_
 _atom_site_type_symbol
 _atom_site_label
 _atom_site_symmetry_multiplicity
 _atom_site_fract_x
 _atom_site_fract_y
 _atom_site_fract_z
 _atom_site_occupancy
  Cu  Cu0  1  0.50000171  -0.00000132  0.24999943  1
  Cu  Cu1  1  0.24999968  0.50000075  0.00000061  1
  Cu  Cu2  1  0.25000123  0.25000233  0.25000016  1
  Cu  Cu3  1  -0.00000214  0.24999840  0.50000027  1
  Si  Si4  1  0.91863791  0.49999496  -0.00000112  1
  Si  Si5  1  0.58136127  0.50000121  0.00000402  1
  Si  Si6  1  0.50000250  0.00000276  0.58136082  1
  Si  Si7  1  0.49999924  0.00000298  0.91864013  1
  Si  Si8  1  0.58135976  0.58136017  0.58136054  1
  Si  Si9  1  0.91863995  0.91864238  0.91864257  1
  Si  Si10  1  0.00000202  0.58135795  0.49999585  1
  Si  Si11  1  -0.00000289  0.91863705  0.49999635  1
  Mo  Mo12  1  0.88683851  0.24999847  0.13683784  1
  Mo  Mo13  1  0.88683904  0.13683693  0.74999865  1
  Mo  Mo14  1  0.61316252  0.36316289  0.25000242  1
  Mo  Mo15  1  0.74999981  0.36316273  0.61316024  1
  Mo  Mo16  1  0.74999875  0.88683832  0.13683577  1
  Mo  Mo17  1  0.61316024  0.75000095  0.36316196  1
  Mo  Mo18  1  0.36316192  0.25000055  0.61316205  1
  Mo  Mo19  1  0.25000092  0.61316230  0.36316335  1
  Mo  Mo20  1  0.24999828  0.13683788  0.88683784  1
  Mo  Mo21  1  0.13683886  0.88683953  0.25000072  1
  Mo  Mo22  1  0.36316225  0.61315984  0.74999995  1
  Mo  Mo23  1  0.13683867  0.75000001  0.88683957  1
