# generated using pymatgen
data_CuSnF4
_symmetry_space_group_name_H-M   'P 1'
_cell_length_a   6.07592033
_cell_length_b   5.19433459
_cell_length_c   5.51506149
_cell_angle_alpha   92.48407404
_cell_angle_beta   90.00001717
_cell_angle_gamma   90.00000196
_symmetry_Int_Tables_number   1
_chemical_formula_structural   CuSnF4
_chemical_formula_sum   'Cu2 Sn2 F8'
_cell_volume   173.89378278
_cell_formula_units_Z   2
loop_
 _symmetry_equiv_pos_site_id
 _symmetry_equiv_pos_as_xyz
  1  'x, y, z'
loop_
 _atom_site_type_symbol
 _atom_site_label
 _atom_site_symmetry_multiplicity
 _atom_site_fract_x
 _atom_site_fract_y
 _atom_site_fract_z
 _atom_site_occupancy
  Cu  Cu0  1  0.65222944  0.49999997  0.24999978  1
  Cu  Cu1  1  0.34776204  0.50000003  0.75000024  1
  Sn  Sn2  1  0.18843476  -0.00000011  0.24999999  1
  Sn  Sn3  1  0.81156256  0.00000009  0.75000001  1
  F  F4  1  0.11563173  0.76075106  0.89314866  1
  F  F5  1  0.11563174  0.23924906  0.60685154  1
  F  F6  1  0.88437433  0.23924897  0.10685771  1
  F  F7  1  0.88437432  0.76075092  0.39314210  1
  F  F8  1  0.40400989  0.72154218  0.42945138  1
  F  F9  1  0.40400996  0.27845779  0.07054866  1
  F  F10  1  0.59598965  0.27846166  0.57054439  1
  F  F11  1  0.59598958  0.72153836  0.92945555  1
