# generated using pymatgen
data_DyAlAs2
_symmetry_space_group_name_H-M   'P 1'
_cell_length_a   6.01939173
_cell_length_b   6.01939375
_cell_length_c   6.71008849
_cell_angle_alpha   116.58963032
_cell_angle_beta   116.58977080
_cell_angle_gamma   92.44583243
_symmetry_Int_Tables_number   1
_chemical_formula_structural   DyAlAs2
_chemical_formula_sum   'Dy2 Al2 As4'
_cell_volume   185.22257962
_cell_formula_units_Z   2
loop_
 _symmetry_equiv_pos_site_id
 _symmetry_equiv_pos_as_xyz
  1  'x, y, z'
loop_
 _atom_site_type_symbol
 _atom_site_label
 _atom_site_symmetry_multiplicity
 _atom_site_fract_x
 _atom_site_fract_y
 _atom_site_fract_z
 _atom_site_occupancy
  Dy  Dy0  1  0.87199155  0.12800788  0.24999972  1
  Dy  Dy1  1  0.12800850  0.87199213  0.75000029  1
  Al  Al2  1  0.72548067  0.27451913  0.75000019  1
  Al  Al3  1  0.27451929  0.72548086  0.24999980  1
  As  As4  1  0.60975974  0.83488809  0.69863601  1
  As  As5  1  0.16511120  0.39023943  0.80136403  1
  As  As6  1  0.39024027  0.16511191  0.30136400  1
  As  As7  1  0.83488878  0.60976057  0.19863596  1
