# generated using pymatgen
data_DyAl2P3
_symmetry_space_group_name_H-M   'P 1'
_cell_length_a   8.38691184
_cell_length_b   8.38691214
_cell_length_c   8.38691231
_cell_angle_alpha   109.47122122
_cell_angle_beta   109.47122735
_cell_angle_gamma   109.47120920
_symmetry_Int_Tables_number   1
_chemical_formula_structural   DyAl2P3
_chemical_formula_sum   'Dy4 Al8 P12'
_cell_volume   454.13440475
_cell_formula_units_Z   4
loop_
 _symmetry_equiv_pos_site_id
 _symmetry_equiv_pos_as_xyz
  1  'x, y, z'
loop_
 _atom_site_type_symbol
 _atom_site_label
 _atom_site_symmetry_multiplicity
 _atom_site_fract_x
 _atom_site_fract_y
 _atom_site_fract_z
 _atom_site_occupancy
  Dy  Dy0  1  0.25000007  0.25000012  0.25000008  1
  Dy  Dy1  1  0.00000001  0.24999998  0.50000000  1
  Dy  Dy2  1  0.25000005  0.50000003  0.00000002  1
  Dy  Dy3  1  0.49999997  -0.00000008  0.25000004  1
  Al  Al4  1  0.50000000  -0.00000003  0.90323667  1
  Al  Al5  1  0.59676336  0.49999998  -0.00000003  1
  Al  Al6  1  0.90323670  0.90323670  0.90323671  1
  Al  Al7  1  0.00000001  0.59676337  0.50000000  1
  Al  Al8  1  0.50000001  -0.00000001  0.59676344  1
  Al  Al9  1  0.90323663  0.50000002  -0.00000001  1
  Al  Al10  1  -0.00000001  0.90323661  0.50000000  1
  Al  Al11  1  0.59676347  0.59676348  0.59676346  1
  P  P12  1  0.60438367  0.74999999  0.35438368  1
  P  P13  1  0.24999995  0.60438368  0.35438364  1
  P  P14  1  0.74999991  0.89561630  0.14561627  1
  P  P15  1  0.60438365  0.35438363  0.24999990  1
  P  P16  1  0.89561634  0.14561633  0.74999996  1
  P  P17  1  0.35438368  0.24999996  0.60438373  1
  P  P18  1  0.35438363  0.60438358  0.74999991  1
  P  P19  1  0.24999995  0.14561635  0.89561636  1
  P  P20  1  0.14561621  0.89561625  0.24999985  1
  P  P21  1  0.75000001  0.35438374  0.60438367  1
  P  P22  1  0.89561637  0.25000000  0.14561631  1
  P  P23  1  0.14561638  0.75000002  0.89561637  1
