# generated using pymatgen
data_DyAuI4
_symmetry_space_group_name_H-M   'P 1'
_cell_length_a   7.53736188
_cell_length_b   8.73169169
_cell_length_c   7.64300594
_cell_angle_alpha   90.01912778
_cell_angle_beta   73.76165389
_cell_angle_gamma   89.97586631
_symmetry_Int_Tables_number   1
_chemical_formula_structural   DyAuI4
_chemical_formula_sum   'Dy2 Au2 I8'
_cell_volume   482.94913637
_cell_formula_units_Z   2
loop_
 _symmetry_equiv_pos_site_id
 _symmetry_equiv_pos_as_xyz
  1  'x, y, z'
loop_
 _atom_site_type_symbol
 _atom_site_label
 _atom_site_symmetry_multiplicity
 _atom_site_fract_x
 _atom_site_fract_y
 _atom_site_fract_z
 _atom_site_occupancy
  Dy  Dy0  1  0.49993845  0.38205094  0.75008116  1
  Dy  Dy1  1  0.50002227  0.61802800  0.24993476  1
  Au  Au2  1  0.00010796  0.83573818  0.74998387  1
  Au  Au3  1  -0.00011181  0.16424504  0.25003346  1
  I  I4  1  0.26543340  -0.11883600  0.45223394  1
  I  I5  1  0.26530008  0.11876325  -0.04768780  1
  I  I6  1  0.25451309  0.38745723  0.49677095  1
  I  I7  1  0.25465368  0.61242650  -0.00325935  1
  I  I8  1  0.74540780  0.38754591  0.00325432  1
  I  I9  1  0.74549081  0.61252169  0.50320634  1
  I  I10  1  0.73457529  -0.11874792  0.04774733  1
  I  I11  1  0.73466999  0.11880719  0.54770204  1
