# generated using pymatgen
data_DyAuCl4
_symmetry_space_group_name_H-M   'P 1'
_cell_length_a   6.46480916
_cell_length_b   6.75552266
_cell_length_c   8.14554952
_cell_angle_alpha   90.00000074
_cell_angle_beta   90.00000020
_cell_angle_gamma   104.15140941
_symmetry_Int_Tables_number   1
_chemical_formula_structural   DyAuCl4
_chemical_formula_sum   'Dy2 Au2 Cl8'
_cell_volume   344.94623984
_cell_formula_units_Z   2
loop_
 _symmetry_equiv_pos_site_id
 _symmetry_equiv_pos_as_xyz
  1  'x, y, z'
loop_
 _atom_site_type_symbol
 _atom_site_label
 _atom_site_symmetry_multiplicity
 _atom_site_fract_x
 _atom_site_fract_y
 _atom_site_fract_z
 _atom_site_occupancy
  Dy  Dy0  1  0.49999999  0.74999999  0.36918661  1
  Dy  Dy1  1  0.50000001  0.25000001  0.63081339  1
  Au  Au2  1  0.00000002  0.75000001  0.84541309  1
  Au  Au3  1  -0.00000003  0.24999998  0.15458691  1
  Cl  Cl4  1  0.73269799  0.45310447  0.87030898  1
  Cl  Cl5  1  0.26730204  0.54689553  0.12969102  1
  Cl  Cl6  1  0.26730206  0.04689556  0.87030898  1
  Cl  Cl7  1  0.73269793  0.95310445  0.12969102  1
  Cl  Cl8  1  0.73564622  0.98571487  0.59565912  1
  Cl  Cl9  1  0.26435377  0.01428512  0.40434087  1
  Cl  Cl10  1  0.26435379  0.51428514  0.59565917  1
  Cl  Cl11  1  0.73564621  0.48571486  0.40434084  1
