# generated using pymatgen
data_DyHO2
_symmetry_space_group_name_H-M   'P 1'
_cell_length_a   3.98629953
_cell_length_b   3.98668409
_cell_length_c   4.29835190
_cell_angle_alpha   89.97722256
_cell_angle_beta   89.99990150
_cell_angle_gamma   119.99664580
_symmetry_Int_Tables_number   1
_chemical_formula_structural   DyHO2
_chemical_formula_sum   'Dy1 H1 O2'
_cell_volume   59.16011133
_cell_formula_units_Z   1
loop_
 _symmetry_equiv_pos_site_id
 _symmetry_equiv_pos_as_xyz
  1  'x, y, z'
loop_
 _atom_site_type_symbol
 _atom_site_label
 _atom_site_symmetry_multiplicity
 _atom_site_fract_x
 _atom_site_fract_y
 _atom_site_fract_z
 _atom_site_occupancy
  Dy  Dy0  1  0.00000001  0.00000000  -0.00000005  1
  H  H1  1  -0.00000001  0.00000002  0.49999992  1
  O  O2  1  0.66666734  0.33333874  0.97939969  1
  O  O3  1  0.33333266  0.66666124  0.02060043  1
