# generated using pymatgen
data_DyHO
_symmetry_space_group_name_H-M   'P 1'
_cell_length_a   3.76187019
_cell_length_b   3.76187000
_cell_length_c   3.76187014
_cell_angle_alpha   59.99998684
_cell_angle_beta   59.99998701
_cell_angle_gamma   59.99998497
_symmetry_Int_Tables_number   1
_chemical_formula_structural   DyHO
_chemical_formula_sum   'Dy1 H1 O1'
_cell_volume   37.64404250
_cell_formula_units_Z   1
loop_
 _symmetry_equiv_pos_site_id
 _symmetry_equiv_pos_as_xyz
  1  'x, y, z'
loop_
 _atom_site_type_symbol
 _atom_site_label
 _atom_site_symmetry_multiplicity
 _atom_site_fract_x
 _atom_site_fract_y
 _atom_site_fract_z
 _atom_site_occupancy
  Dy  Dy0  1  0.00000000  0.00000001  0.00000004  1
  H  H1  1  0.50000000  0.50000000  0.50000001  1
  O  O2  1  0.75000000  0.74999999  0.74999995  1
