# generated using pymatgen
data_DyYAs2
_symmetry_space_group_name_H-M   'P 1'
_cell_length_a   4.08267393
_cell_length_b   4.08267402
_cell_length_c   7.09935595
_cell_angle_alpha   89.99999630
_cell_angle_beta   89.99999437
_cell_angle_gamma   119.99999980
_symmetry_Int_Tables_number   1
_chemical_formula_structural   DyYAs2
_chemical_formula_sum   'Dy1 Y1 As2'
_cell_volume   102.47996878
_cell_formula_units_Z   1
loop_
 _symmetry_equiv_pos_site_id
 _symmetry_equiv_pos_as_xyz
  1  'x, y, z'
loop_
 _atom_site_type_symbol
 _atom_site_label
 _atom_site_symmetry_multiplicity
 _atom_site_fract_x
 _atom_site_fract_y
 _atom_site_fract_z
 _atom_site_occupancy
  Dy  Dy0  1  -0.00000001  -0.00000002  0.49999999  1
  Y  Y1  1  -0.00000001  -0.00000002  0.00000001  1
  As  As2  1  0.33333334  0.66666664  0.25003898  1
  As  As3  1  0.66666668  0.33333339  0.74996102  1
