# generated using pymatgen
data_Er3TmC3
_symmetry_space_group_name_H-M   'P 1'
_cell_length_a   6.81256225
_cell_length_b   6.81258144
_cell_length_c   6.36556616
_cell_angle_alpha   71.84272067
_cell_angle_beta   71.84270210
_cell_angle_gamma   110.78305109
_symmetry_Int_Tables_number   1
_chemical_formula_structural   Er3TmC3
_chemical_formula_sum   'Er6 Tm2 C6'
_cell_volume   230.92159819
_cell_formula_units_Z   2
loop_
 _symmetry_equiv_pos_site_id
 _symmetry_equiv_pos_as_xyz
  1  'x, y, z'
loop_
 _atom_site_type_symbol
 _atom_site_label
 _atom_site_symmetry_multiplicity
 _atom_site_fract_x
 _atom_site_fract_y
 _atom_site_fract_z
 _atom_site_occupancy
  Er  Er0  1  0.09386593  0.54681992  0.20303039  1
  Er  Er1  1  0.54692487  0.45307535  0.24999991  1
  Er  Er2  1  0.54682018  0.09386577  0.70303045  1
  Er  Er3  1  0.45317986  0.90613424  0.29696944  1
  Er  Er4  1  0.45307518  0.54692474  0.74999987  1
  Er  Er5  1  0.90613404  0.45318001  0.79696966  1
  Tm  Tm6  1  0.00000001  -0.00000003  0.50000002  1
  Tm  Tm7  1  0.00000001  0.00000002  0.00000003  1
  C  C8  1  0.62342497  0.81187808  0.93844330  1
  C  C9  1  0.81251764  0.18748224  0.25000008  1
  C  C10  1  0.37657498  0.18812208  0.06155674  1
  C  C11  1  0.18748220  0.81251764  0.75000013  1
  C  C12  1  0.81187817  0.62342516  0.43844330  1
  C  C13  1  0.18812196  0.37657478  0.56155668  1
