# generated using pymatgen
data_ErAsN2
_symmetry_space_group_name_H-M   'P 1'
_cell_length_a   4.67888674
_cell_length_b   4.67912256
_cell_length_c   6.67151501
_cell_angle_alpha   65.21474623
_cell_angle_beta   65.21740544
_cell_angle_gamma   83.84196932
_symmetry_Int_Tables_number   1
_chemical_formula_structural   ErAsN2
_chemical_formula_sum   'Er2 As2 N4'
_cell_volume   119.97752583
_cell_formula_units_Z   2
loop_
 _symmetry_equiv_pos_site_id
 _symmetry_equiv_pos_as_xyz
  1  'x, y, z'
loop_
 _atom_site_type_symbol
 _atom_site_label
 _atom_site_symmetry_multiplicity
 _atom_site_fract_x
 _atom_site_fract_y
 _atom_site_fract_z
 _atom_site_occupancy
  Er  Er0  1  0.61205541  0.38791510  0.25000876  1
  Er  Er1  1  0.38794449  0.61208608  0.74999085  1
  As  As2  1  0.10778908  0.89253510  0.24980240  1
  As  As3  1  0.89220942  0.10745431  0.75019960  1
  N  N4  1  0.17155175  0.30427717  0.16976199  1
  N  N5  1  0.69571035  0.82836102  0.33023691  1
  N  N6  1  0.82844881  0.69573238  0.83023630  1
  N  N7  1  0.30429068  0.17163883  0.66976319  1
