# generated using pymatgen
data_ErSi2As
_symmetry_space_group_name_H-M   'P 1'
_cell_length_a   3.83547339
_cell_length_b   5.55995470
_cell_length_c   9.73425640
_cell_angle_alpha   53.55628221
_cell_angle_beta   90.00009594
_cell_angle_gamma   89.99958745
_symmetry_Int_Tables_number   1
_chemical_formula_structural   ErSi2As
_chemical_formula_sum   'Er2 Si4 As2'
_cell_volume   166.98869972
_cell_formula_units_Z   2
loop_
 _symmetry_equiv_pos_site_id
 _symmetry_equiv_pos_as_xyz
  1  'x, y, z'
loop_
 _atom_site_type_symbol
 _atom_site_label
 _atom_site_symmetry_multiplicity
 _atom_site_fract_x
 _atom_site_fract_y
 _atom_site_fract_z
 _atom_site_occupancy
  Er  Er0  1  0.50000942  0.61901166  0.25089295  1
  Er  Er1  1  0.50000582  0.38098525  0.74910470  1
  Si  Si2  1  0.50004805  0.24344728  0.11643351  1
  Si  Si3  1  -0.00001389  0.24034779  0.57033003  1
  Si  Si4  1  -0.00000971  0.75990694  0.42953563  1
  Si  Si5  1  0.50004876  0.75636513  0.88370764  1
  As  As6  1  0.00001249  -0.00009229  -0.00002930  1
  As  As7  1  0.49989907  0.00002826  0.50002486  1
