# generated using pymatgen
data_EuBiP2
_symmetry_space_group_name_H-M   'P 1'
_cell_length_a   4.12954756
_cell_length_b   4.12949257
_cell_length_c   6.96454631
_cell_angle_alpha   89.99410620
_cell_angle_beta   90.00338641
_cell_angle_gamma   119.99956373
_symmetry_Int_Tables_number   1
_chemical_formula_structural   EuBiP2
_chemical_formula_sum   'Eu1 Bi1 P2'
_cell_volume   102.85479196
_cell_formula_units_Z   1
loop_
 _symmetry_equiv_pos_site_id
 _symmetry_equiv_pos_as_xyz
  1  'x, y, z'
loop_
 _atom_site_type_symbol
 _atom_site_label
 _atom_site_symmetry_multiplicity
 _atom_site_fract_x
 _atom_site_fract_y
 _atom_site_fract_z
 _atom_site_occupancy
  Eu  Eu0  1  -0.00001388  -0.00001130  -0.00000753  1
  Bi  Bi1  1  0.00000490  -0.00000138  0.50000450  1
  P  P2  1  0.66665388  0.33330668  0.25611661  1
  P  P3  1  0.33335510  0.66670600  0.74388642  1
