# generated using pymatgen
data_Fe2PN
_symmetry_space_group_name_H-M   'P 1'
_cell_length_a   3.65812715
_cell_length_b   6.33421657
_cell_length_c   5.18586260
_cell_angle_alpha   65.97056450
_cell_angle_beta   90.00000006
_cell_angle_gamma   90.00000038
_symmetry_Int_Tables_number   1
_chemical_formula_structural   Fe2PN
_chemical_formula_sum   'Fe4 P2 N2'
_cell_volume   109.74973155
_cell_formula_units_Z   2
loop_
 _symmetry_equiv_pos_site_id
 _symmetry_equiv_pos_as_xyz
  1  'x, y, z'
loop_
 _atom_site_type_symbol
 _atom_site_label
 _atom_site_symmetry_multiplicity
 _atom_site_fract_x
 _atom_site_fract_y
 _atom_site_fract_z
 _atom_site_occupancy
  Fe  Fe0  1  0.50000000  0.11531949  0.65378330  1
  Fe  Fe1  1  0.00000000  0.38442642  0.34623641  1
  Fe  Fe2  1  0.50000000  0.88467468  0.34622590  1
  Fe  Fe3  1  -0.00000000  0.61556243  0.65380541  1
  P  P4  1  -0.00000000  0.00000144  0.49997928  1
  P  P5  1  0.50000000  0.50001053  0.49998412  1
  N  N6  1  -0.00000000  0.50001000  -0.00002893  1
  N  N7  1  0.50000000  -0.00000498  0.00001451  1
