# generated using pymatgen
data_FeTe2Ru
_symmetry_space_group_name_H-M   'P 1'
_cell_length_a   5.44840317
_cell_length_b   5.44755624
_cell_length_c   6.39756048
_cell_angle_alpha   103.12237028
_cell_angle_beta   119.49085497
_cell_angle_gamma   98.93110454
_symmetry_Int_Tables_number   1
_chemical_formula_structural   FeTe2Ru
_chemical_formula_sum   'Fe2 Te4 Ru2'
_cell_volume   152.77108412
_cell_formula_units_Z   2
loop_
 _symmetry_equiv_pos_site_id
 _symmetry_equiv_pos_as_xyz
  1  'x, y, z'
loop_
 _atom_site_type_symbol
 _atom_site_label
 _atom_site_symmetry_multiplicity
 _atom_site_fract_x
 _atom_site_fract_y
 _atom_site_fract_z
 _atom_site_occupancy
  Fe  Fe0  1  0.52785410  0.27862625  0.75018926  1
  Fe  Fe1  1  0.47215000  0.72137760  0.24981054  1
  Te  Te2  1  0.64003583  0.81693119  0.74384784  1
  Te  Te3  1  0.07243229  0.39737556  0.75657360  1
  Te  Te4  1  0.35995732  0.18306790  0.25615304  1
  Te  Te5  1  0.92756643  0.60261758  0.24342639  1
  Ru  Ru6  1  0.84565911  0.09373290  0.25182538  1
  Ru  Ru7  1  0.15434492  0.90627203  0.74817396  1
