# generated using pymatgen
data_FeWSe2
_symmetry_space_group_name_H-M   'P 1'
_cell_length_a   3.81021879
_cell_length_b   3.81021882
_cell_length_c   14.94962621
_cell_angle_alpha   90.00010507
_cell_angle_beta   89.99991250
_cell_angle_gamma   119.99998366
_symmetry_Int_Tables_number   1
_chemical_formula_structural   FeWSe2
_chemical_formula_sum   'Fe2 W2 Se4'
_cell_volume   187.95802345
_cell_formula_units_Z   2
loop_
 _symmetry_equiv_pos_site_id
 _symmetry_equiv_pos_as_xyz
  1  'x, y, z'
loop_
 _atom_site_type_symbol
 _atom_site_label
 _atom_site_symmetry_multiplicity
 _atom_site_fract_x
 _atom_site_fract_y
 _atom_site_fract_z
 _atom_site_occupancy
  Fe  Fe0  1  0.66666562  0.33333519  0.31575757  1
  Fe  Fe1  1  0.33333441  0.66666479  0.68424218  1
  W  W2  1  -0.00000090  0.00000164  0.26082559  1
  W  W3  1  0.00000088  -0.00000162  0.73917450  1
  Se  Se4  1  0.66666798  0.33333103  0.61353894  1
  Se  Se5  1  0.33333382  0.66666572  0.83984901  1
  Se  Se6  1  0.66666617  0.33333429  0.16015203  1
  Se  Se7  1  0.33333203  0.66666896  0.38646018  1
