# generated using pymatgen
data_GaFeN2
_symmetry_space_group_name_H-M   'P 1'
_cell_length_a   4.21298196
_cell_length_b   4.21298227
_cell_length_c   5.12275421
_cell_angle_alpha   65.66236510
_cell_angle_beta   65.66236727
_cell_angle_gamma   89.95192429
_symmetry_Int_Tables_number   1
_chemical_formula_structural   GaFeN2
_chemical_formula_sum   'Ga2 Fe2 N4'
_cell_volume   73.90186351
_cell_formula_units_Z   2
loop_
 _symmetry_equiv_pos_site_id
 _symmetry_equiv_pos_as_xyz
  1  'x, y, z'
loop_
 _atom_site_type_symbol
 _atom_site_label
 _atom_site_symmetry_multiplicity
 _atom_site_fract_x
 _atom_site_fract_y
 _atom_site_fract_z
 _atom_site_occupancy
  Ga  Ga0  1  0.87434096  0.12565912  0.25000000  1
  Ga  Ga1  1  0.12566030  0.87433963  0.75000001  1
  Fe  Fe2  1  0.62577911  0.37422079  0.74999999  1
  Fe  Fe3  1  0.37421702  0.62578308  0.24999999  1
  N  N4  1  0.87345509  0.62357667  0.25296252  1
  N  N5  1  0.37642336  0.12654498  0.24703748  1
  N  N6  1  0.62357927  0.87345506  0.75295995  1
  N  N7  1  0.12654489  0.37642068  0.74704005  1
