# generated using pymatgen
data_GaIF2
_symmetry_space_group_name_H-M   'P 1'
_cell_length_a   3.27837060
_cell_length_b   4.62433297
_cell_length_c   5.53457186
_cell_angle_alpha   90.48280066
_cell_angle_beta   90.08362704
_cell_angle_gamma   110.73459828
_symmetry_Int_Tables_number   1
_chemical_formula_structural   GaIF2
_chemical_formula_sum   'Ga1 I1 F2'
_cell_volume   78.46743856
_cell_formula_units_Z   1
loop_
 _symmetry_equiv_pos_site_id
 _symmetry_equiv_pos_as_xyz
  1  'x, y, z'
loop_
 _atom_site_type_symbol
 _atom_site_label
 _atom_site_symmetry_multiplicity
 _atom_site_fract_x
 _atom_site_fract_y
 _atom_site_fract_z
 _atom_site_occupancy
  Ga  Ga0  1  0.00158777  0.00064630  0.50037049  1
  I  I1  1  -0.00367169  -0.00153305  -0.00006835  1
  F  F2  1  0.63729015  0.27357958  0.50610860  1
  F  F3  1  0.36479376  0.72730717  0.49358927  1
