# generated using pymatgen
data_GaSi2P
_symmetry_space_group_name_H-M   'P 1'
_cell_length_a   3.60236919
_cell_length_b   6.86010075
_cell_length_c   5.78090538
_cell_angle_alpha   94.30471848
_cell_angle_beta   89.99997969
_cell_angle_gamma   90.00007101
_symmetry_Int_Tables_number   1
_chemical_formula_structural   GaSi2P
_chemical_formula_sum   'Ga2 Si4 P2'
_cell_volume   142.45827428
_cell_formula_units_Z   2
loop_
 _symmetry_equiv_pos_site_id
 _symmetry_equiv_pos_as_xyz
  1  'x, y, z'
loop_
 _atom_site_type_symbol
 _atom_site_label
 _atom_site_symmetry_multiplicity
 _atom_site_fract_x
 _atom_site_fract_y
 _atom_site_fract_z
 _atom_site_occupancy
  Ga  Ga0  1  0.49999825  0.54220069  0.73560391  1
  Ga  Ga1  1  0.50000139  0.45779993  0.26439822  1
  Si  Si2  1  0.00000054  0.20913343  0.35260333  1
  Si  Si3  1  0.50000066  0.20579005  0.86266295  1
  Si  Si4  1  0.49999973  0.79420983  0.13733680  1
  Si  Si5  1  -0.00000082  0.79086609  0.64739523  1
  P  P6  1  0.00000026  -0.00000025  -0.00000019  1
  P  P7  1  0.49999999  0.00000022  0.49999974  1
