# generated using pymatgen
data_GaSi2Bi
_symmetry_space_group_name_H-M   'P 1'
_cell_length_a   3.78072624
_cell_length_b   5.39142780
_cell_length_c   9.54919479
_cell_angle_alpha   84.33371120
_cell_angle_beta   90.00695085
_cell_angle_gamma   90.00249434
_symmetry_Int_Tables_number   1
_chemical_formula_structural   GaSi2Bi
_chemical_formula_sum   'Ga2 Si4 Bi2'
_cell_volume   193.69505718
_cell_formula_units_Z   2
loop_
 _symmetry_equiv_pos_site_id
 _symmetry_equiv_pos_as_xyz
  1  'x, y, z'
loop_
 _atom_site_type_symbol
 _atom_site_label
 _atom_site_symmetry_multiplicity
 _atom_site_fract_x
 _atom_site_fract_y
 _atom_site_fract_z
 _atom_site_occupancy
  Ga  Ga0  1  0.00003834  0.72086523  0.68302232  1
  Ga  Ga1  1  -0.00003831  0.27913478  0.31697767  1
  Si  Si2  1  0.50001732  0.28342913  0.49484348  1
  Si  Si3  1  0.49998266  0.71657085  0.50515653  1
  Si  Si4  1  0.50005763  0.02899580  0.71067503  1
  Si  Si5  1  0.49994234  -0.02899579  0.28932497  1
  Bi  Bi6  1  0.00008500  0.30722150  0.87971020  1
  Bi  Bi7  1  -0.00008499  0.69277850  0.12028980  1
