# generated using pymatgen
data_GdBr2F
_symmetry_space_group_name_H-M   'P 1'
_cell_length_a   5.02355275
_cell_length_b   5.02920973
_cell_length_c   4.48124869
_cell_angle_alpha   90.00883445
_cell_angle_beta   89.91977222
_cell_angle_gamma   120.06558818
_symmetry_Int_Tables_number   1
_chemical_formula_structural   GdBr2F
_chemical_formula_sum   'Gd1 Br2 F1'
_cell_volume   97.98339209
_cell_formula_units_Z   1
loop_
 _symmetry_equiv_pos_site_id
 _symmetry_equiv_pos_as_xyz
  1  'x, y, z'
loop_
 _atom_site_type_symbol
 _atom_site_label
 _atom_site_symmetry_multiplicity
 _atom_site_fract_x
 _atom_site_fract_y
 _atom_site_fract_z
 _atom_site_occupancy
  Gd  Gd0  1  -0.00000054  -0.00000037  0.49999985  1
  Br  Br1  1  0.33327194  0.66650838  0.29924334  1
  Br  Br2  1  0.66672933  0.33349215  0.70075666  1
  F  F3  1  -0.00000073  -0.00000016  0.00000015  1
