# generated using pymatgen
data_Ge3Te2S
_symmetry_space_group_name_H-M   'P 1'
_cell_length_a   9.20657587
_cell_length_b   9.20660068
_cell_length_c   9.20658576
_cell_angle_alpha   109.47173112
_cell_angle_beta   109.47182711
_cell_angle_gamma   109.47171633
_symmetry_Int_Tables_number   1
_chemical_formula_structural   Ge3Te2S
_chemical_formula_sum   'Ge12 Te8 S4'
_cell_volume   600.71089943
_cell_formula_units_Z   4
loop_
 _symmetry_equiv_pos_site_id
 _symmetry_equiv_pos_as_xyz
  1  'x, y, z'
loop_
 _atom_site_type_symbol
 _atom_site_label
 _atom_site_symmetry_multiplicity
 _atom_site_fract_x
 _atom_site_fract_y
 _atom_site_fract_z
 _atom_site_occupancy
  Ge  Ge0  1  0.56447768  0.74999997  0.31447102  1
  Ge  Ge1  1  0.25000765  0.56448426  0.31448858  1
  Ge  Ge2  1  0.74999896  0.93552313  0.18552897  1
  Ge  Ge3  1  0.56448537  0.31448922  0.25000892  1
  Ge  Ge4  1  0.93552156  0.18552907  0.75000047  1
  Ge  Ge5  1  0.31448802  0.25000795  0.56448272  1
  Ge  Ge6  1  0.31447336  0.56447873  0.75000165  1
  Ge  Ge7  1  0.24999190  0.18551052  0.93551454  1
  Ge  Ge8  1  0.18551015  0.93551440  0.24999187  1
  Ge  Ge9  1  0.74999990  0.31447049  0.56447797  1
  Ge  Ge10  1  0.93551839  0.24999149  0.18551380  1
  Ge  Ge11  1  0.18552700  0.74999931  0.93552092  1
  Te  Te12  1  0.50000232  0.00000449  0.90568012  1
  Te  Te13  1  0.59431907  0.49999502  -0.00000362  1
  Te  Te14  1  0.90568383  0.90568278  0.90568308  1
  Te  Te15  1  -0.00000312  0.59432059  0.49999580  1
  Te  Te16  1  0.49999532  -0.00000360  0.59431953  1
  Te  Te17  1  0.90568074  0.50000409  0.00000433  1
  Te  Te18  1  0.00000500  0.90568046  0.50000385  1
  Te  Te19  1  0.59431652  0.59431674  0.59431655  1
  S  S20  1  0.24999915  0.25000030  0.25000036  1
  S  S21  1  -0.00000118  0.25000009  0.50000062  1
  S  S22  1  0.24999984  0.50000163  -0.00000242  1
  S  S23  1  0.50000258  -0.00000111  0.25000040  1
