# generated using pymatgen
data_GeP2Ru
_symmetry_space_group_name_H-M   'P 1'
_cell_length_a   3.66509436
_cell_length_b   3.66509427
_cell_length_c   5.91454309
_cell_angle_alpha   89.99875155
_cell_angle_beta   89.99883178
_cell_angle_gamma   59.99695779
_symmetry_Int_Tables_number   1
_chemical_formula_structural   GeP2Ru
_chemical_formula_sum   'Ge1 P2 Ru1'
_cell_volume   68.80323003
_cell_formula_units_Z   1
loop_
 _symmetry_equiv_pos_site_id
 _symmetry_equiv_pos_as_xyz
  1  'x, y, z'
loop_
 _atom_site_type_symbol
 _atom_site_label
 _atom_site_symmetry_multiplicity
 _atom_site_fract_x
 _atom_site_fract_y
 _atom_site_fract_z
 _atom_site_occupancy
  Ge  Ge0  1  -0.00000018  0.00000011  -0.00000092  1
  P  P1  1  0.66667050  0.66667312  0.69463910  1
  P  P2  1  0.33332581  0.33333060  0.30536178  1
  Ru  Ru3  1  0.99999765  0.00000239  0.50000003  1
