# generated using pymatgen
data_GePdO2
_symmetry_space_group_name_H-M   'P 1'
_cell_length_a   7.09700868
_cell_length_b   7.09779773
_cell_length_c   5.39746959
_cell_angle_alpha   47.18489816
_cell_angle_beta   47.17970964
_cell_angle_gamma   37.09873180
_symmetry_Int_Tables_number   1
_chemical_formula_structural   GePdO2
_chemical_formula_sum   'Ge2 Pd2 O4'
_cell_volume   114.33484182
_cell_formula_units_Z   2
loop_
 _symmetry_equiv_pos_site_id
 _symmetry_equiv_pos_as_xyz
  1  'x, y, z'
loop_
 _atom_site_type_symbol
 _atom_site_label
 _atom_site_symmetry_multiplicity
 _atom_site_fract_x
 _atom_site_fract_y
 _atom_site_fract_z
 _atom_site_occupancy
  Ge  Ge0  1  0.30704829  0.69303555  0.74985467  1
  Ge  Ge1  1  0.69296231  0.30695183  0.25014761  1
  Pd  Pd2  1  0.50002224  -0.00000476  0.49999749  1
  Pd  Pd3  1  0.00000606  0.49998170  0.00000298  1
  O  O4  1  0.21905278  0.08137313  0.37761045  1
  O  O5  1  -0.08124831  0.78081088  0.12240553  1
  O  O6  1  0.08122842  0.21920440  0.87760850  1
  O  O7  1  0.78092822  -0.08135273  0.62237278  1
