# generated using pymatgen
data_H3RuS3
_symmetry_space_group_name_H-M   'P 1'
_cell_length_a   5.83630722
_cell_length_b   7.19003052
_cell_length_c   7.19008894
_cell_angle_alpha   112.96488938
_cell_angle_beta   105.69816743
_cell_angle_gamma   105.69963994
_symmetry_Int_Tables_number   1
_chemical_formula_structural   H3RuS3
_chemical_formula_sum   'H6 Ru2 S6'
_cell_volume   242.16780303
_cell_formula_units_Z   2
loop_
 _symmetry_equiv_pos_site_id
 _symmetry_equiv_pos_as_xyz
  1  'x, y, z'
loop_
 _atom_site_type_symbol
 _atom_site_label
 _atom_site_symmetry_multiplicity
 _atom_site_fract_x
 _atom_site_fract_y
 _atom_site_fract_z
 _atom_site_occupancy
  H  H0  1  0.60094753  0.12086826  0.60649042  1
  H  H1  1  0.48848576  0.51470254  0.37894131  1
  H  H2  1  0.47378301  -0.13579383  -0.01474034  1
  H  H3  1  -0.01993047  0.48560128  0.37913274  1
  H  H4  1  0.99447836  0.89352457  0.01436512  1
  H  H5  1  0.10956117  0.12106797  0.63578488  1
  Ru  Ru6  1  0.08452946  0.49999951  -0.00000363  1
  Ru  Ru7  1  0.62846408  0.49999626  -0.00000426  1
  S  S8  1  0.34949578  0.64158641  0.83703153  1
  S  S9  1  0.85327708  0.33290778  0.15713796  1
  S  S10  1  0.51245055  0.66297244  0.30452051  1
  S  S11  1  0.02038004  0.82420183  0.16709640  1
  S  S12  1  0.20791148  0.19547163  0.85845547  1
  S  S13  1  0.69616416  0.34289336  0.67579191  1
