# generated using pymatgen
data_Hf2As3Au
_symmetry_space_group_name_H-M   'P 1'
_cell_length_a   8.73826494
_cell_length_b   8.73837106
_cell_length_c   8.73822647
_cell_angle_alpha   109.47119035
_cell_angle_beta   109.47076117
_cell_angle_gamma   109.47140204
_symmetry_Int_Tables_number   1
_chemical_formula_structural   Hf2As3Au
_chemical_formula_sum   'Hf8 As12 Au4'
_cell_volume   513.63989521
_cell_formula_units_Z   4
loop_
 _symmetry_equiv_pos_site_id
 _symmetry_equiv_pos_as_xyz
  1  'x, y, z'
loop_
 _atom_site_type_symbol
 _atom_site_label
 _atom_site_symmetry_multiplicity
 _atom_site_fract_x
 _atom_site_fract_y
 _atom_site_fract_z
 _atom_site_occupancy
  Hf  Hf0  1  0.50000050  -0.00000044  0.93838001  1
  Hf  Hf1  1  0.56161858  0.50000122  -0.00000078  1
  Hf  Hf2  1  0.93838312  0.93838301  0.93838212  1
  Hf  Hf3  1  -0.00000155  0.56161528  0.49999846  1
  Hf  Hf4  1  0.49999899  -0.00000003  0.56162008  1
  Hf  Hf5  1  0.93838278  0.50000092  0.00000179  1
  Hf  Hf6  1  -0.00000022  0.93838397  0.50000095  1
  Hf  Hf7  1  0.56161813  0.56161613  0.56161790  1
  As  As8  1  0.63234729  0.75000044  0.38234753  1
  As  As9  1  0.25000221  0.63234825  0.38234560  1
  As  As10  1  0.74999820  0.86765295  0.11765356  1
  As  As11  1  0.63234574  0.38234463  0.24999813  1
  As  As12  1  0.86765266  0.11765563  0.75000011  1
  As  As13  1  0.38234488  0.24999876  0.63234342  1
  As  As14  1  0.38234631  0.63234796  0.75000243  1
  As  As15  1  0.25000367  0.11765566  0.86765620  1
  As  As16  1  0.11765403  0.86765189  0.24999849  1
  As  As17  1  0.74999778  0.38234426  0.63234553  1
  As  As18  1  0.86765378  0.24999854  0.11765462  1
  As  As19  1  0.11765311  0.75000122  0.86765408  1
  Au  Au20  1  0.24999987  0.24999960  0.24999935  1
  Au  Au21  1  -0.00000008  0.24999999  0.50000012  1
  Au  Au22  1  0.25000038  0.50000037  0.00000021  1
  Au  Au23  1  0.49999984  -0.00000021  0.25000011  1
