# generated using pymatgen
data_HfCrAs2
_symmetry_space_group_name_H-M   'P 1'
_cell_length_a   4.06574302
_cell_length_b   5.43301741
_cell_length_c   10.16317576
_cell_angle_alpha   83.12448007
_cell_angle_beta   89.99999623
_cell_angle_gamma   90.00000345
_symmetry_Int_Tables_number   1
_chemical_formula_structural   HfCrAs2
_chemical_formula_sum   'Hf3 Cr3 As6'
_cell_volume   222.88250509
_cell_formula_units_Z   3
loop_
 _symmetry_equiv_pos_site_id
 _symmetry_equiv_pos_as_xyz
  1  'x, y, z'
loop_
 _atom_site_type_symbol
 _atom_site_label
 _atom_site_symmetry_multiplicity
 _atom_site_fract_x
 _atom_site_fract_y
 _atom_site_fract_z
 _atom_site_occupancy
  Hf  Hf0  1  -0.00000001  0.29816225  0.25963545  1
  Hf  Hf1  1  0.00000001  0.70183914  0.74036409  1
  Hf  Hf2  1  -0.00000000  -0.00000166  0.00000061  1
  Cr  Cr3  1  0.00000000  0.50000009  0.50000020  1
  Cr  Cr4  1  -0.00000000  0.49999848  -0.00000117  1
  Cr  Cr5  1  0.00000001  0.00000046  0.49999983  1
  As  As6  1  0.50000000  0.28029667  0.07932388  1
  As  As7  1  0.49999998  0.73844593  0.56154879  1
  As  As8  1  0.50000000  0.71970321  0.92067610  1
  As  As9  1  0.50000001  0.26155431  0.43845120  1
  As  As10  1  0.00000001  0.20244153  0.72015582  1
  As  As11  1  -0.00000000  0.79755961  0.27984519  1
