# generated using pymatgen
data_HfSi2Ru
_symmetry_space_group_name_H-M   'P 1'
_cell_length_a   2.86453802
_cell_length_b   5.30566969
_cell_length_c   5.23347654
_cell_angle_alpha   119.65526308
_cell_angle_beta   89.99777287
_cell_angle_gamma   90.01347354
_symmetry_Int_Tables_number   1
_chemical_formula_structural   HfSi2Ru
_chemical_formula_sum   'Hf1 Si2 Ru1'
_cell_volume   69.12161770
_cell_formula_units_Z   1
loop_
 _symmetry_equiv_pos_site_id
 _symmetry_equiv_pos_as_xyz
  1  'x, y, z'
loop_
 _atom_site_type_symbol
 _atom_site_label
 _atom_site_symmetry_multiplicity
 _atom_site_fract_x
 _atom_site_fract_y
 _atom_site_fract_z
 _atom_site_occupancy
  Hf  Hf0  1  -0.00000056  0.00000000  0.50000004  1
  Si  Si1  1  0.00000035  0.49999996  0.49999991  1
  Si  Si2  1  0.00000000  0.50000002  0.00000001  1
  Ru  Ru3  1  0.00000021  0.00000002  0.00000004  1
