# generated using pymatgen
data_HfTiAs2
_symmetry_space_group_name_H-M   'P 1'
_cell_length_a   3.64999799
_cell_length_b   6.60199806
_cell_length_c   9.80261022
_cell_angle_alpha   42.08870485
_cell_angle_beta   89.99999882
_cell_angle_gamma   90.00000500
_symmetry_Int_Tables_number   1
_chemical_formula_structural   HfTiAs2
_chemical_formula_sum   'Hf2 Ti2 As4'
_cell_volume   158.33110015
_cell_formula_units_Z   2
loop_
 _symmetry_equiv_pos_site_id
 _symmetry_equiv_pos_as_xyz
  1  'x, y, z'
loop_
 _atom_site_type_symbol
 _atom_site_label
 _atom_site_symmetry_multiplicity
 _atom_site_fract_x
 _atom_site_fract_y
 _atom_site_fract_z
 _atom_site_occupancy
  Hf  Hf0  1  0.49999994  -0.00000030  0.50000016  1
  Hf  Hf1  1  0.00000001  -0.00000030  0.00000034  1
  Ti  Ti2  1  0.00000019  0.50000223  -0.00000115  1
  Ti  Ti3  1  -0.00000002  0.50000049  0.49999965  1
  As  As4  1  -0.00000014  0.57908019  0.71054012  1
  As  As5  1  0.49999999  0.00034818  0.78767244  1
  As  As6  1  0.50000000  0.99965040  0.21232844  1
  As  As7  1  0.00000004  0.42091910  0.28946000  1
