# generated using pymatgen
data_Hg2MoC
_symmetry_space_group_name_H-M   'P 1'
_cell_length_a   4.98804847
_cell_length_b   4.98797530
_cell_length_c   3.94375113
_cell_angle_alpha   90.02476531
_cell_angle_beta   89.93909401
_cell_angle_gamma   119.99127113
_symmetry_Int_Tables_number   1
_chemical_formula_structural   Hg2MoC
_chemical_formula_sum   'Hg2 Mo1 C1'
_cell_volume   84.98319145
_cell_formula_units_Z   1
loop_
 _symmetry_equiv_pos_site_id
 _symmetry_equiv_pos_as_xyz
  1  'x, y, z'
loop_
 _atom_site_type_symbol
 _atom_site_label
 _atom_site_symmetry_multiplicity
 _atom_site_fract_x
 _atom_site_fract_y
 _atom_site_fract_z
 _atom_site_occupancy
  Hg  Hg0  1  0.66666475  0.33328938  0.00650947  1
  Hg  Hg1  1  0.33326552  0.66668792  -0.00650885  1
  Mo  Mo2  1  -0.00023348  -0.00007675  -0.00001142  1
  C  C3  1  0.00030321  0.00009945  0.50001080  1
