# generated using pymatgen
data_Hg2Sb3W
_symmetry_space_group_name_H-M   'P 1'
_cell_length_a   9.32319266
_cell_length_b   9.32308646
_cell_length_c   9.32307156
_cell_angle_alpha   109.47065271
_cell_angle_beta   109.47111124
_cell_angle_gamma   109.47118098
_symmetry_Int_Tables_number   1
_chemical_formula_structural   Hg2Sb3W
_chemical_formula_sum   'Hg8 Sb12 W4'
_cell_volume   623.82868440
_cell_formula_units_Z   4
loop_
 _symmetry_equiv_pos_site_id
 _symmetry_equiv_pos_as_xyz
  1  'x, y, z'
loop_
 _atom_site_type_symbol
 _atom_site_label
 _atom_site_symmetry_multiplicity
 _atom_site_fract_x
 _atom_site_fract_y
 _atom_site_fract_z
 _atom_site_occupancy
  Hg  Hg0  1  0.50000163  0.00000071  0.90228130  1
  Hg  Hg1  1  0.59771829  0.50000040  -0.00000089  1
  Hg  Hg2  1  0.90228045  0.90227993  0.90228136  1
  Hg  Hg3  1  -0.00000146  0.59771792  0.49999960  1
  Hg  Hg4  1  0.50000129  0.00000030  0.59772001  1
  Hg  Hg5  1  0.90228152  0.50000087  -0.00000088  1
  Hg  Hg6  1  -0.00000110  0.90228095  0.49999960  1
  Hg  Hg7  1  0.59771939  0.59771895  0.59771993  1
  Sb  Sb8  1  0.57109267  0.74999892  0.32109263  1
  Sb  Sb9  1  0.25000078  0.57109345  0.32109383  1
  Sb  Sb10  1  0.75000109  0.92890778  0.17890720  1
  Sb  Sb11  1  0.57109480  0.32109588  0.25000098  1
  Sb  Sb12  1  0.92890854  0.17890898  0.75000038  1
  Sb  Sb13  1  0.32109334  0.25000008  0.57109299  1
  Sb  Sb14  1  0.32109127  0.57109161  0.74999999  1
  Sb  Sb15  1  0.24999942  0.17890644  0.92890646  1
  Sb  Sb16  1  0.17890449  0.92890592  0.25000013  1
  Sb  Sb17  1  0.75000069  0.32109336  0.57109341  1
  Sb  Sb18  1  0.92890640  0.24999862  0.17890600  1
  Sb  Sb19  1  0.17890655  0.74999894  0.92890601  1
  W  W20  1  0.24999953  0.24999968  0.25000075  1
  W  W21  1  -0.00000031  0.24999970  0.49999946  1
  W  W22  1  0.24999957  0.49999964  -0.00000095  1
  W  W23  1  0.50000119  0.00000095  0.25000071  1
