# generated using pymatgen
data_Hg3PCl3
_symmetry_space_group_name_H-M   'P 1'
_cell_length_a   12.07684686
_cell_length_b   12.07684733
_cell_length_c   8.08576426
_cell_angle_alpha   77.31826843
_cell_angle_beta   77.31827304
_cell_angle_gamma   62.98469570
_symmetry_Int_Tables_number   1
_chemical_formula_structural   Hg3PCl3
_chemical_formula_sum   'Hg12 P4 Cl12'
_cell_volume   1015.21374390
_cell_formula_units_Z   4
loop_
 _symmetry_equiv_pos_site_id
 _symmetry_equiv_pos_as_xyz
  1  'x, y, z'
loop_
 _atom_site_type_symbol
 _atom_site_label
 _atom_site_symmetry_multiplicity
 _atom_site_fract_x
 _atom_site_fract_y
 _atom_site_fract_z
 _atom_site_occupancy
  Hg  Hg0  1  0.84402741  0.48190877  0.16844082  1
  Hg  Hg1  1  0.48190876  0.84402744  0.66844084  1
  Hg  Hg2  1  0.51809130  0.15597253  0.33155917  1
  Hg  Hg3  1  0.15597260  0.51809119  0.83155913  1
  Hg  Hg4  1  0.04341740  0.23824223  0.87338976  1
  Hg  Hg5  1  0.76175789  -0.04341746  0.62661020  1
  Hg  Hg6  1  -0.04341740  0.76175775  0.12661019  1
  Hg  Hg7  1  0.23824210  0.04341749  0.37338992  1
  Hg  Hg8  1  0.72880027  0.43749436  0.80972326  1
  Hg  Hg9  1  0.56250564  0.27119965  0.69027679  1
  Hg  Hg10  1  0.27119974  0.56250562  0.19027669  1
  Hg  Hg11  1  0.43749430  0.72880040  0.30972319  1
  P  P12  1  0.45815002  0.90556878  0.37122185  1
  P  P13  1  0.54184998  0.09443123  0.62877816  1
  P  P14  1  0.90556867  0.45815013  0.87122181  1
  P  P15  1  0.09443134  0.54184985  0.12877815  1
  Cl  Cl16  1  0.03561800  0.19543080  0.31531435  1
  Cl  Cl17  1  0.80456922  0.96438183  0.18468588  1
  Cl  Cl18  1  0.96438199  0.80456922  0.68468582  1
  Cl  Cl19  1  0.19543078  0.03561815  0.81531414  1
  Cl  Cl20  1  0.23750633  0.43533480  0.56597207  1
  Cl  Cl21  1  0.56466518  0.76249364  0.93402788  1
  Cl  Cl22  1  0.76249364  0.56466519  0.43402788  1
  Cl  Cl23  1  0.43533485  0.23750637  0.06597212  1
  Cl  Cl24  1  0.79788012  0.20211982  0.75000020  1
  Cl  Cl25  1  0.20211987  0.79788018  0.24999975  1
  Cl  Cl26  1  0.51048012  0.48951985  0.74999996  1
  Cl  Cl27  1  0.48951986  0.51048017  0.25000002  1
