# generated using pymatgen
data_HgAsW
_symmetry_space_group_name_H-M   'P 1'
_cell_length_a   4.39555816
_cell_length_b   4.39555908
_cell_length_c   4.39555790
_cell_angle_alpha   60.00000407
_cell_angle_beta   60.00000463
_cell_angle_gamma   59.99997798
_symmetry_Int_Tables_number   1
_chemical_formula_structural   HgAsW
_chemical_formula_sum   'Hg1 As1 W1'
_cell_volume   60.05195025
_cell_formula_units_Z   1
loop_
 _symmetry_equiv_pos_site_id
 _symmetry_equiv_pos_as_xyz
  1  'x, y, z'
loop_
 _atom_site_type_symbol
 _atom_site_label
 _atom_site_symmetry_multiplicity
 _atom_site_fract_x
 _atom_site_fract_y
 _atom_site_fract_z
 _atom_site_occupancy
  Hg  Hg0  1  0.50000001  0.49999999  0.50000000  1
  As  As1  1  0.24999997  0.25000000  0.25000001  1
  W  W2  1  0.00000002  0.00000001  -0.00000001  1
