# generated using pymatgen
data_HgIBr
_symmetry_space_group_name_H-M   'P 1'
_cell_length_a   5.24003433
_cell_length_b   5.24003430
_cell_length_c   5.24003452
_cell_angle_alpha   59.99999887
_cell_angle_beta   59.99999962
_cell_angle_gamma   59.99999735
_symmetry_Int_Tables_number   1
_chemical_formula_structural   HgIBr
_chemical_formula_sum   'Hg1 I1 Br1'
_cell_volume   101.73898451
_cell_formula_units_Z   1
loop_
 _symmetry_equiv_pos_site_id
 _symmetry_equiv_pos_as_xyz
  1  'x, y, z'
loop_
 _atom_site_type_symbol
 _atom_site_label
 _atom_site_symmetry_multiplicity
 _atom_site_fract_x
 _atom_site_fract_y
 _atom_site_fract_z
 _atom_site_occupancy
  Hg  Hg0  1  0.75000001  0.75000000  0.74999999  1
  I  I1  1  0.50000000  0.50000001  0.50000000  1
  Br  Br2  1  -0.00000002  -0.00000001  0.00000001  1
