# generated using pymatgen
data_HgIrCl4
_symmetry_space_group_name_H-M   'P 1'
_cell_length_a   6.37833596
_cell_length_b   6.19231184
_cell_length_c   8.11685819
_cell_angle_alpha   90.00007086
_cell_angle_beta   89.99994580
_cell_angle_gamma   86.36902885
_symmetry_Int_Tables_number   1
_chemical_formula_structural   HgIrCl4
_chemical_formula_sum   'Hg2 Ir2 Cl8'
_cell_volume   319.94513221
_cell_formula_units_Z   2
loop_
 _symmetry_equiv_pos_site_id
 _symmetry_equiv_pos_as_xyz
  1  'x, y, z'
loop_
 _atom_site_type_symbol
 _atom_site_label
 _atom_site_symmetry_multiplicity
 _atom_site_fract_x
 _atom_site_fract_y
 _atom_site_fract_z
 _atom_site_occupancy
  Hg  Hg0  1  -0.00000017  0.74999921  0.07400273  1
  Hg  Hg1  1  0.00000017  0.25000079  0.92599706  1
  Ir  Ir2  1  0.49999989  0.75000014  0.60804722  1
  Ir  Ir3  1  0.50000010  0.24999987  0.39195404  1
  Cl  Cl4  1  0.29466079  0.44608769  0.59515141  1
  Cl  Cl5  1  0.70533915  0.05391246  0.59515142  1
  Cl  Cl6  1  0.70533054  0.55389078  0.40484469  1
  Cl  Cl7  1  0.29466955  0.94610905  0.40484470  1
  Cl  Cl8  1  0.28772426  0.40553630  0.18387246  1
  Cl  Cl9  1  0.71227600  0.09446305  0.18387191  1
  Cl  Cl10  1  0.71227934  0.59446128  0.81613091  1
  Cl  Cl11  1  0.28772038  0.90553938  0.81613147  1
