# generated using pymatgen
data_HgPdI4
_symmetry_space_group_name_H-M   'P 1'
_cell_length_a   8.12494901
_cell_length_b   6.66052778
_cell_length_c   7.39071341
_cell_angle_alpha   84.27709902
_cell_angle_beta   89.99999964
_cell_angle_gamma   89.99999879
_symmetry_Int_Tables_number   1
_chemical_formula_structural   HgPdI4
_chemical_formula_sum   'Hg2 Pd2 I8'
_cell_volume   397.96568290
_cell_formula_units_Z   2
loop_
 _symmetry_equiv_pos_site_id
 _symmetry_equiv_pos_as_xyz
  1  'x, y, z'
loop_
 _atom_site_type_symbol
 _atom_site_label
 _atom_site_symmetry_multiplicity
 _atom_site_fract_x
 _atom_site_fract_y
 _atom_site_fract_z
 _atom_site_occupancy
  Hg  Hg0  1  0.19302089  0.00000006  0.75000003  1
  Hg  Hg1  1  0.80697880  -0.00000006  0.24999996  1
  Pd  Pd2  1  0.64030922  0.50000000  0.75000000  1
  Pd  Pd3  1  0.35969033  0.49999999  0.25000001  1
  I  I4  1  0.88141960  0.25584433  0.90243255  1
  I  I5  1  0.40063761  0.27685482  -0.06304423  1
  I  I6  1  0.40063756  0.72314520  0.56304427  1
  I  I7  1  0.88141957  0.74415577  0.59756752  1
  I  I8  1  0.11858026  0.25584288  0.40243213  1
  I  I9  1  0.59936300  0.27685503  0.43695832  1
  I  I10  1  0.59936293  0.72314496  0.06304163  1
  I  I11  1  0.11858024  0.74415702  0.09756781  1
