# generated using pymatgen
data_HgPH2
_symmetry_space_group_name_H-M   'P 1'
_cell_length_a   3.39897378
_cell_length_b   9.43696349
_cell_length_c   3.47761683
_cell_angle_alpha   76.31636793
_cell_angle_beta   89.66780033
_cell_angle_gamma   89.93250848
_symmetry_Int_Tables_number   1
_chemical_formula_structural   HgPH2
_chemical_formula_sum   'Hg2 P2 H4'
_cell_volume   108.38008747
_cell_formula_units_Z   2
loop_
 _symmetry_equiv_pos_site_id
 _symmetry_equiv_pos_as_xyz
  1  'x, y, z'
loop_
 _atom_site_type_symbol
 _atom_site_label
 _atom_site_symmetry_multiplicity
 _atom_site_fract_x
 _atom_site_fract_y
 _atom_site_fract_z
 _atom_site_occupancy
  Hg  Hg0  1  0.50007965  0.63908826  0.17788932  1
  Hg  Hg1  1  0.49990784  0.36057807  0.82274551  1
  P  P2  1  -0.00003429  -0.00005061  0.00006055  1
  P  P3  1  0.50002307  0.00009053  0.49994887  1
  H  H4  1  0.49998049  0.16644558  0.37625452  1
  H  H5  1  0.00018408  0.16762371  0.89910769  1
  H  H6  1  -0.00013653  0.83248068  0.10101181  1
  H  H7  1  0.49999567  0.83374378  0.62298174  1
