# generated using pymatgen
data_HgTe2Mo
_symmetry_space_group_name_H-M   'P 1'
_cell_length_a   3.51088839
_cell_length_b   3.51088827
_cell_length_c   10.11482139
_cell_angle_alpha   89.99998677
_cell_angle_beta   90.00000415
_cell_angle_gamma   120.00000278
_symmetry_Int_Tables_number   1
_chemical_formula_structural   HgTe2Mo
_chemical_formula_sum   'Hg1 Te2 Mo1'
_cell_volume   107.97491496
_cell_formula_units_Z   1
loop_
 _symmetry_equiv_pos_site_id
 _symmetry_equiv_pos_as_xyz
  1  'x, y, z'
loop_
 _atom_site_type_symbol
 _atom_site_label
 _atom_site_symmetry_multiplicity
 _atom_site_fract_x
 _atom_site_fract_y
 _atom_site_fract_z
 _atom_site_occupancy
  Hg  Hg0  1  -0.00000002  -0.00000004  0.00000001  1
  Te  Te1  1  0.33333339  0.66666671  0.31654247  1
  Te  Te2  1  0.66666662  0.33333332  0.68345753  1
  Mo  Mo3  1  0.00000001  0.00000001  0.50000000  1
