# generated using pymatgen
data_HOsO
_symmetry_space_group_name_H-M   'P 1'
_cell_length_a   3.40801653
_cell_length_b   3.40867237
_cell_length_c   3.40802907
_cell_angle_alpha   119.99848798
_cell_angle_beta   90.00396748
_cell_angle_gamma   119.99838145
_symmetry_Int_Tables_number   1
_chemical_formula_structural   HOsO
_chemical_formula_sum   'H1 Os1 O1'
_cell_volume   27.99501850
_cell_formula_units_Z   1
loop_
 _symmetry_equiv_pos_site_id
 _symmetry_equiv_pos_as_xyz
  1  'x, y, z'
loop_
 _atom_site_type_symbol
 _atom_site_label
 _atom_site_symmetry_multiplicity
 _atom_site_fract_x
 _atom_site_fract_y
 _atom_site_fract_z
 _atom_site_occupancy
  H  H0  1  0.24998633  0.49999998  0.75001257  1
  Os  Os1  1  0.00001481  -0.00000048  -0.00001520  1
  O  O2  1  0.74999787  0.50000049  0.25000163  1
