# generated using pymatgen
data_InBiC2
_symmetry_space_group_name_H-M   'P 1'
_cell_length_a   3.48730328
_cell_length_b   6.44989841
_cell_length_c   7.18719596
_cell_angle_alpha   61.52636417
_cell_angle_beta   90.00000548
_cell_angle_gamma   90.00000065
_symmetry_Int_Tables_number   1
_chemical_formula_structural   InBiC2
_chemical_formula_sum   'In2 Bi2 C4'
_cell_volume   142.10489143
_cell_formula_units_Z   2
loop_
 _symmetry_equiv_pos_site_id
 _symmetry_equiv_pos_as_xyz
  1  'x, y, z'
loop_
 _atom_site_type_symbol
 _atom_site_label
 _atom_site_symmetry_multiplicity
 _atom_site_fract_x
 _atom_site_fract_y
 _atom_site_fract_z
 _atom_site_occupancy
  In  In0  1  -0.00000004  0.49998924  0.00001303  1
  In  In1  1  0.00000007  0.49999882  0.50000227  1
  Bi  Bi2  1  0.49999991  -0.00000565  0.50000352  1
  Bi  Bi3  1  -0.00000002  -0.00000081  0.00000258  1
  C  C4  1  0.00000037  0.71671187  0.66664465  1
  C  C5  1  0.49999973  0.18893427  0.72885832  1
  C  C6  1  0.50000029  0.81106870  0.27114774  1
  C  C7  1  -0.00000031  0.28330356  0.33332789  1
