# generated using pymatgen
data_IrPtSe2
_symmetry_space_group_name_H-M   'P 1'
_cell_length_a   2.76381033
_cell_length_b   11.03472226
_cell_length_c   5.62499822
_cell_angle_alpha   72.04932618
_cell_angle_beta   89.99252423
_cell_angle_gamma   89.99888938
_symmetry_Int_Tables_number   1
_chemical_formula_structural   IrPtSe2
_chemical_formula_sum   'Ir2 Pt2 Se4'
_cell_volume   163.19981345
_cell_formula_units_Z   2
loop_
 _symmetry_equiv_pos_site_id
 _symmetry_equiv_pos_as_xyz
  1  'x, y, z'
loop_
 _atom_site_type_symbol
 _atom_site_label
 _atom_site_symmetry_multiplicity
 _atom_site_fract_x
 _atom_site_fract_y
 _atom_site_fract_z
 _atom_site_occupancy
  Ir  Ir0  1  0.49997217  0.42685999  0.35909319  1
  Ir  Ir1  1  0.50002831  0.57315147  0.64089172  1
  Pt  Pt2  1  0.00005374  0.77473504  0.41114289  1
  Pt  Pt3  1  -0.00005423  0.22525508  0.58886591  1
  Se  Se4  1  0.50002659  0.36111544  0.97183119  1
  Se  Se5  1  0.49997435  0.63887999  0.02817735  1
  Se  Se6  1  0.49997309  0.02171503  0.74442462  1
  Se  Se7  1  0.50002599  -0.02171206  0.25557312  1
