# generated using pymatgen
data_IrSBr2
_symmetry_space_group_name_H-M   'P 1'
_cell_length_a   3.87473878
_cell_length_b   6.75957939
_cell_length_c   7.83100890
_cell_angle_alpha   74.56508178
_cell_angle_beta   90.00000710
_cell_angle_gamma   90.00000326
_symmetry_Int_Tables_number   1
_chemical_formula_structural   IrSBr2
_chemical_formula_sum   'Ir2 S2 Br4'
_cell_volume   197.70918349
_cell_formula_units_Z   2
loop_
 _symmetry_equiv_pos_site_id
 _symmetry_equiv_pos_as_xyz
  1  'x, y, z'
loop_
 _atom_site_type_symbol
 _atom_site_label
 _atom_site_symmetry_multiplicity
 _atom_site_fract_x
 _atom_site_fract_y
 _atom_site_fract_z
 _atom_site_occupancy
  Ir  Ir0  1  0.49999999  0.49999999  0.00000001  1
  Ir  Ir1  1  0.00000001  0.00000000  -0.00000000  1
  S  S2  1  0.49999996  0.00000000  0.50000002  1
  S  S3  1  0.00000003  0.50000002  0.49999997  1
  Br  Br4  1  0.00000003  0.61075559  0.17468081  1
  Br  Br5  1  -0.00000001  0.38924441  0.82531919  1
  Br  Br6  1  0.50000002  0.11042582  0.17513170  1
  Br  Br7  1  0.49999996  0.88957417  0.82486831  1
