# generated using pymatgen
data_K2PdC
_symmetry_space_group_name_H-M   'P 1'
_cell_length_a   3.76525844
_cell_length_b   4.98829882
_cell_length_c   10.58808155
_cell_angle_alpha   84.79825469
_cell_angle_beta   89.99996645
_cell_angle_gamma   89.99994368
_symmetry_Int_Tables_number   1
_chemical_formula_structural   K2PdC
_chemical_formula_sum   'K4 Pd2 C2'
_cell_volume   198.04881791
_cell_formula_units_Z   2
loop_
 _symmetry_equiv_pos_site_id
 _symmetry_equiv_pos_as_xyz
  1  'x, y, z'
loop_
 _atom_site_type_symbol
 _atom_site_label
 _atom_site_symmetry_multiplicity
 _atom_site_fract_x
 _atom_site_fract_y
 _atom_site_fract_z
 _atom_site_occupancy
  K  K0  1  0.49999871  0.32155056  0.62870121  1
  K  K1  1  0.50000060  0.67844958  0.37129971  1
  K  K2  1  0.50000066  0.78621450  0.82010895  1
  K  K3  1  0.50000002  0.21378519  0.17989066  1
  Pd  Pd4  1  0.00000026  0.26053886  0.94871192  1
  Pd  Pd5  1  0.00000028  0.73945945  0.05128691  1
  C  C6  1  -0.00000013  0.90718282  0.54514068  1
  C  C7  1  -0.00000041  0.09281904  0.45485997  1
