# generated using pymatgen
data_K3BP2
_symmetry_space_group_name_H-M   'P 1'
_cell_length_a   10.27849932
_cell_length_b   10.27849903
_cell_length_c   10.27849860
_cell_angle_alpha   109.47123484
_cell_angle_beta   109.47124727
_cell_angle_gamma   109.47124440
_symmetry_Int_Tables_number   1
_chemical_formula_structural   K3BP2
_chemical_formula_sum   'K12 B4 P8'
_cell_volume   835.92411651
_cell_formula_units_Z   4
loop_
 _symmetry_equiv_pos_site_id
 _symmetry_equiv_pos_as_xyz
  1  'x, y, z'
loop_
 _atom_site_type_symbol
 _atom_site_label
 _atom_site_symmetry_multiplicity
 _atom_site_fract_x
 _atom_site_fract_y
 _atom_site_fract_z
 _atom_site_occupancy
  K  K0  1  0.24999974  0.13710963  0.88710971  1
  K  K1  1  0.13710957  0.88710991  0.24999969  1
  K  K2  1  0.88710992  0.24999998  0.13710967  1
  K  K3  1  0.13710969  0.75000006  0.88710976  1
  K  K4  1  0.61289005  0.74999983  0.36289017  1
  K  K5  1  0.36289038  0.25000025  0.61289028  1
  K  K6  1  0.88710983  0.13710982  0.75000045  1
  K  K7  1  0.61289006  0.36289019  0.25000006  1
  K  K8  1  0.75000040  0.88710983  0.13710984  1
  K  K9  1  0.25000007  0.61289025  0.36289028  1
  K  K10  1  0.75000012  0.36289022  0.61289044  1
  K  K11  1  0.36289025  0.61289026  0.74999990  1
  B  B12  1  0.24999177  0.24999186  0.24999192  1
  B  B13  1  0.00000010  0.25000219  0.49999998  1
  B  B14  1  0.24999612  0.49999984  -0.00000017  1
  B  B15  1  0.49999998  -0.00000003  0.25000486  1
  P  P16  1  0.49999991  0.00000018  0.07380882  1
  P  P17  1  0.07381289  0.49999988  0.00000014  1
  P  P18  1  0.49999992  -0.00000024  0.42618630  1
  P  P19  1  0.00000019  0.42618829  0.49999985  1
  P  P20  1  0.07381495  0.07381489  0.07381483  1
  P  P21  1  0.42619085  0.49999991  -0.00000025  1
  P  P22  1  0.42619296  0.42619316  0.42619321  1
  P  P23  1  0.00000030  0.07380983  0.50000026  1
