# generated using pymatgen
data_KCaAs
_symmetry_space_group_name_H-M   'P 1'
_cell_length_a   5.22108903
_cell_length_b   5.22108265
_cell_length_c   5.22108687
_cell_angle_alpha   60.00006483
_cell_angle_beta   60.00004921
_cell_angle_gamma   60.00007060
_symmetry_Int_Tables_number   1
_chemical_formula_structural   KCaAs
_chemical_formula_sum   'K1 Ca1 As1'
_cell_volume   100.63943608
_cell_formula_units_Z   1
loop_
 _symmetry_equiv_pos_site_id
 _symmetry_equiv_pos_as_xyz
  1  'x, y, z'
loop_
 _atom_site_type_symbol
 _atom_site_label
 _atom_site_symmetry_multiplicity
 _atom_site_fract_x
 _atom_site_fract_y
 _atom_site_fract_z
 _atom_site_occupancy
  K  K0  1  -0.00000030  -0.00000006  0.00000002  1
  Ca  Ca1  1  0.49999991  0.49999999  0.50000005  1
  As  As2  1  0.25000038  0.25000007  0.24999993  1
