# generated using pymatgen
data_KFeSi
_symmetry_space_group_name_H-M   'P 1'
_cell_length_a   4.54500573
_cell_length_b   4.54500933
_cell_length_c   4.54499316
_cell_angle_alpha   60.00005629
_cell_angle_beta   60.00013187
_cell_angle_gamma   59.99978116
_symmetry_Int_Tables_number   1
_chemical_formula_structural   KFeSi
_chemical_formula_sum   'K1 Fe1 Si1'
_cell_volume   66.38765825
_cell_formula_units_Z   1
loop_
 _symmetry_equiv_pos_site_id
 _symmetry_equiv_pos_as_xyz
  1  'x, y, z'
loop_
 _atom_site_type_symbol
 _atom_site_label
 _atom_site_symmetry_multiplicity
 _atom_site_fract_x
 _atom_site_fract_y
 _atom_site_fract_z
 _atom_site_occupancy
  K  K0  1  0.49999999  0.50000001  0.49999999  1
  Fe  Fe1  1  0.00000004  0.00000004  0.00000003  1
  Si  Si2  1  0.74999997  0.74999995  0.74999998  1
