# generated using pymatgen
data_KNdC
_symmetry_space_group_name_H-M   'P 1'
_cell_length_a   4.48052688
_cell_length_b   4.48052711
_cell_length_c   4.48052618
_cell_angle_alpha   59.99999120
_cell_angle_beta   59.99999657
_cell_angle_gamma   59.99999625
_symmetry_Int_Tables_number   1
_chemical_formula_structural   KNdC
_chemical_formula_sum   'K1 Nd1 C1'
_cell_volume   63.60220406
_cell_formula_units_Z   1
loop_
 _symmetry_equiv_pos_site_id
 _symmetry_equiv_pos_as_xyz
  1  'x, y, z'
loop_
 _atom_site_type_symbol
 _atom_site_label
 _atom_site_symmetry_multiplicity
 _atom_site_fract_x
 _atom_site_fract_y
 _atom_site_fract_z
 _atom_site_occupancy
  K  K0  1  0.24999995  0.24999997  0.25000004  1
  Nd  Nd1  1  0.00000005  0.00000003  -0.00000003  1
  C  C2  1  0.50000000  0.50000001  0.49999999  1
