# generated using pymatgen
data_KRbCl2
_symmetry_space_group_name_H-M   'P 1'
_cell_length_a   11.19933914
_cell_length_b   11.19933893
_cell_length_c   7.99891684
_cell_angle_alpha   61.49234873
_cell_angle_beta   118.50765088
_cell_angle_gamma   71.19034689
_symmetry_Int_Tables_number   1
_chemical_formula_structural   KRbCl2
_chemical_formula_sum   'K4 Rb4 Cl8'
_cell_volume   543.58576904
_cell_formula_units_Z   4
loop_
 _symmetry_equiv_pos_site_id
 _symmetry_equiv_pos_as_xyz
  1  'x, y, z'
loop_
 _atom_site_type_symbol
 _atom_site_label
 _atom_site_symmetry_multiplicity
 _atom_site_fract_x
 _atom_site_fract_y
 _atom_site_fract_z
 _atom_site_occupancy
  K  K0  1  0.18592917  0.18592920  0.75000002  1
  K  K1  1  0.43926296  0.43926301  0.75000003  1
  K  K2  1  0.81407071  0.81407084  0.24999988  1
  K  K3  1  0.56073709  0.56073702  0.25000002  1
  Rb  Rb4  1  0.68927210  0.68927213  0.74999994  1
  Rb  Rb5  1  0.93596291  0.93596287  0.74999999  1
  Rb  Rb6  1  0.06403711  0.06403712  0.25000001  1
  Rb  Rb7  1  0.31072795  0.31072783  0.25000013  1
  Cl  Cl8  1  0.19122653  0.68382764  0.74986346  1
  Cl  Cl9  1  0.44423543  0.93032637  0.77146699  1
  Cl  Cl10  1  0.31617221  0.80877368  0.24986318  1
  Cl  Cl11  1  0.06967365  0.55576448  0.27146702  1
  Cl  Cl12  1  0.93032636  0.44423552  0.72853296  1
  Cl  Cl13  1  0.68382778  0.19122633  0.75013680  1
  Cl  Cl14  1  0.55576456  0.06967361  0.22853303  1
  Cl  Cl15  1  0.80877347  0.31617234  0.25013654  1
