# generated using pymatgen
data_KScS2
_symmetry_space_group_name_H-M   'P 1'
_cell_length_a   3.81830607
_cell_length_b   6.61736191
_cell_length_c   9.89831369
_cell_angle_alpha   48.89957294
_cell_angle_beta   90.00010878
_cell_angle_gamma   90.00003934
_symmetry_Int_Tables_number   1
_chemical_formula_structural   KScS2
_chemical_formula_sum   'K2 Sc2 S4'
_cell_volume   188.46634444
_cell_formula_units_Z   2
loop_
 _symmetry_equiv_pos_site_id
 _symmetry_equiv_pos_as_xyz
  1  'x, y, z'
loop_
 _atom_site_type_symbol
 _atom_site_label
 _atom_site_symmetry_multiplicity
 _atom_site_fract_x
 _atom_site_fract_y
 _atom_site_fract_z
 _atom_site_occupancy
  K  K0  1  0.50000875  0.00000278  0.49999963  1
  K  K1  1  0.00000439  0.49999768  0.50000035  1
  Sc  Sc2  1  0.49999677  0.50000211  -0.00000237  1
  Sc  Sc3  1  -0.00000262  0.00000013  0.00000124  1
  S  S4  1  -0.00000060  0.47825405  0.19081597  1
  S  S5  1  -0.00000240  0.52174537  0.80918214  1
  S  S6  1  0.49999870  -0.02085127  0.19036191  1
  S  S7  1  0.49999701  0.02084916  0.80964112  1
