# generated using pymatgen
data_LaPrAs2
_symmetry_space_group_name_H-M   'P 1'
_cell_length_a   4.28733316
_cell_length_b   4.28733444
_cell_length_c   7.54584109
_cell_angle_alpha   89.99997503
_cell_angle_beta   90.00001481
_cell_angle_gamma   119.99997417
_symmetry_Int_Tables_number   1
_chemical_formula_structural   LaPrAs2
_chemical_formula_sum   'La1 Pr1 As2'
_cell_volume   120.11935619
_cell_formula_units_Z   1
loop_
 _symmetry_equiv_pos_site_id
 _symmetry_equiv_pos_as_xyz
  1  'x, y, z'
loop_
 _atom_site_type_symbol
 _atom_site_label
 _atom_site_symmetry_multiplicity
 _atom_site_fract_x
 _atom_site_fract_y
 _atom_site_fract_z
 _atom_site_occupancy
  La  La0  1  0.00000002  0.00000022  -0.00000005  1
  Pr  Pr1  1  -0.00000006  -0.00000009  0.50000001  1
  As  As2  1  0.33333340  0.66666668  0.25270860  1
  As  As3  1  0.66666665  0.33333319  0.74729144  1
