# generated using pymatgen
data_LaScAs2
_symmetry_space_group_name_H-M   'P 1'
_cell_length_a   5.05357538
_cell_length_b   5.66404626
_cell_length_c   7.66122359
_cell_angle_alpha   106.77206794
_cell_angle_beta   90.00220003
_cell_angle_gamma   89.99997528
_symmetry_Int_Tables_number   1
_chemical_formula_structural   LaScAs2
_chemical_formula_sum   'La2 Sc2 As4'
_cell_volume   209.96381103
_cell_formula_units_Z   2
loop_
 _symmetry_equiv_pos_site_id
 _symmetry_equiv_pos_as_xyz
  1  'x, y, z'
loop_
 _atom_site_type_symbol
 _atom_site_label
 _atom_site_symmetry_multiplicity
 _atom_site_fract_x
 _atom_site_fract_y
 _atom_site_fract_z
 _atom_site_occupancy
  La  La0  1  0.50000675  0.49928380  0.00031200  1
  La  La1  1  0.49997936  0.50016081  0.50008870  1
  Sc  Sc2  1  -0.00001000  0.08907641  0.80224566  1
  Sc  Sc3  1  0.00001851  -0.08932949  0.19742278  1
  As  As4  1  0.49997761  0.04928569  0.68779092  1
  As  As5  1  -0.00000486  0.61338570  0.80097629  1
  As  As6  1  0.00001190  0.38715035  0.20003041  1
  As  As7  1  0.50002073  0.95098673  0.31113323  1
