# generated using pymatgen
data_LaTl3O3
_symmetry_space_group_name_H-M   'P 1'
_cell_length_a   10.18877072
_cell_length_b   6.90162162
_cell_length_c   6.90183775
_cell_angle_alpha   97.86491807
_cell_angle_beta   119.47935324
_cell_angle_gamma   119.47248857
_symmetry_Int_Tables_number   1
_chemical_formula_structural   LaTl3O3
_chemical_formula_sum   'La2 Tl6 O6'
_cell_volume   318.53776344
_cell_formula_units_Z   2
loop_
 _symmetry_equiv_pos_site_id
 _symmetry_equiv_pos_as_xyz
  1  'x, y, z'
loop_
 _atom_site_type_symbol
 _atom_site_label
 _atom_site_symmetry_multiplicity
 _atom_site_fract_x
 _atom_site_fract_y
 _atom_site_fract_z
 _atom_site_occupancy
  La  La0  1  0.19544477  0.50006044  0.00005482  1
  La  La1  1  0.69538648  0.50000640  -0.00004057  1
  Tl  Tl2  1  0.46382939  0.75711159  0.76313303  1
  Tl  Tl3  1  0.96381449  0.26309991  0.25715049  1
  Tl  Tl4  1  0.70074354  0.73696207  0.49407759  1
  Tl  Tl5  1  0.20068874  -0.00594569  0.23692189  1
  Tl  Tl6  1  0.20671228  0.00595592  0.74286823  1
  Tl  Tl7  1  0.70661018  0.24285420  0.50589767  1
  O  O8  1  0.48894560  0.09231849  0.69101738  1
  O  O9  1  0.29794210  0.40139768  0.30902135  1
  O  O10  1  0.39647650  -0.09239217  0.09846110  1
  O  O11  1  -0.10343871  0.59859612  0.40764650  1
  O  O12  1  0.79801001  0.80903986  0.90144849  1
  O  O13  1  -0.01116534  0.19093519  0.59234204  1
