# generated using pymatgen
data_Li2CuSi
_symmetry_space_group_name_H-M   'P 1'
_cell_length_a   8.87468896
_cell_length_b   8.87480824
_cell_length_c   8.87513270
_cell_angle_alpha   116.30346160
_cell_angle_beta   116.30824496
_cell_angle_gamma   116.29779561
_symmetry_Int_Tables_number   1
_chemical_formula_structural   Li2CuSi
_chemical_formula_sum   'Li12 Cu6 Si6'
_cell_volume   340.23702691
_cell_formula_units_Z   6
loop_
 _symmetry_equiv_pos_site_id
 _symmetry_equiv_pos_as_xyz
  1  'x, y, z'
loop_
 _atom_site_type_symbol
 _atom_site_label
 _atom_site_symmetry_multiplicity
 _atom_site_fract_x
 _atom_site_fract_y
 _atom_site_fract_z
 _atom_site_occupancy
  Li  Li0  1  0.73014873  0.61137624  0.20141003  1
  Li  Li1  1  0.20138172  0.73013738  0.61137569  1
  Li  Li2  1  0.38859836  0.79859849  0.26984500  1
  Li  Li3  1  0.61136455  0.20137564  0.73012164  1
  Li  Li4  1  0.26981090  0.38857777  0.79855103  1
  Li  Li5  1  0.79857965  0.26982045  0.38858160  1
  Li  Li6  1  0.68761868  0.91557613  -0.01529067  1
  Li  Li7  1  -0.01529707  0.68764386  0.91559141  1
  Li  Li8  1  0.91558171  -0.01529285  0.68761262  1
  Li  Li9  1  0.31242688  0.08445044  0.01531930  1
  Li  Li10  1  0.01532933  0.31240296  0.08443868  1
  Li  Li11  1  0.08444630  0.01532070  0.31243267  1
  Cu  Cu12  1  0.52514332  0.21161649  0.43081694  1
  Cu  Cu13  1  0.21160309  0.43080992  0.52511503  1
  Cu  Cu14  1  0.43079714  0.52512506  0.21157780  1
  Cu  Cu15  1  0.47489611  0.78843298  0.56922756  1
  Cu  Cu16  1  0.78843860  0.56923113  0.47492397  1
  Cu  Cu17  1  0.56924398  0.47491734  0.78846304  1
  Si  Si18  1  0.26842902  0.07512433  0.70025571  1
  Si  Si19  1  0.73152799  0.92482758  0.29971380  1
  Si  Si20  1  0.92485883  0.29973740  0.73156017  1
  Si  Si21  1  0.29969624  0.73154532  0.92484264  1
  Si  Si22  1  0.07510175  0.70023572  0.26840386  1
  Si  Si23  1  0.70027418  0.26840949  0.07511048  1
