# generated using pymatgen
data_LiAgS
_symmetry_space_group_name_H-M   'P 1'
_cell_length_a   4.24638872
_cell_length_b   4.24638679
_cell_length_c   4.24638628
_cell_angle_alpha   59.99977271
_cell_angle_beta   59.99975565
_cell_angle_gamma   59.99973199
_symmetry_Int_Tables_number   1
_chemical_formula_structural   LiAgS
_chemical_formula_sum   'Li1 Ag1 S1'
_cell_volume   54.14288207
_cell_formula_units_Z   1
loop_
 _symmetry_equiv_pos_site_id
 _symmetry_equiv_pos_as_xyz
  1  'x, y, z'
loop_
 _atom_site_type_symbol
 _atom_site_label
 _atom_site_symmetry_multiplicity
 _atom_site_fract_x
 _atom_site_fract_y
 _atom_site_fract_z
 _atom_site_occupancy
  Li  Li0  1  0.49999989  0.49999994  0.49999988  1
  Ag  Ag1  1  0.25000004  0.25000005  0.25000002  1
  S  S2  1  0.00000007  0.00000001  0.00000010  1
