# generated using pymatgen
data_LiGaO2
_symmetry_space_group_name_H-M   'P 1'
_cell_length_a   2.72966140
_cell_length_b   5.65215802
_cell_length_c   5.71011539
_cell_angle_alpha   90.05139072
_cell_angle_beta   89.99684820
_cell_angle_gamma   89.92290776
_symmetry_Int_Tables_number   1
_chemical_formula_structural   LiGaO2
_chemical_formula_sum   'Li2 Ga2 O4'
_cell_volume   88.09827192
_cell_formula_units_Z   2
loop_
 _symmetry_equiv_pos_site_id
 _symmetry_equiv_pos_as_xyz
  1  'x, y, z'
loop_
 _atom_site_type_symbol
 _atom_site_label
 _atom_site_symmetry_multiplicity
 _atom_site_fract_x
 _atom_site_fract_y
 _atom_site_fract_z
 _atom_site_occupancy
  Li  Li0  1  -0.00001559  0.24734412  0.88109006  1
  Li  Li1  1  0.00001654  0.75265691  0.11890998  1
  Ga  Ga2  1  0.00009445  0.74818382  0.62963787  1
  Ga  Ga3  1  -0.00009484  0.25181590  0.37036216  1
  O  O4  1  0.49985399  0.25261057  0.60740051  1
  O  O5  1  0.50014574  0.74738954  0.39259940  1
  O  O6  1  0.50004465  0.75230213  0.85953614  1
  O  O7  1  0.49995506  0.24769703  0.14046388  1
