# generated using pymatgen
data_LiSnSb
_symmetry_space_group_name_H-M   'P 1'
_cell_length_a   5.03679004
_cell_length_b   5.03678791
_cell_length_c   5.03678908
_cell_angle_alpha   59.99998598
_cell_angle_beta   59.99995058
_cell_angle_gamma   60.00003648
_symmetry_Int_Tables_number   1
_chemical_formula_structural   LiSnSb
_chemical_formula_sum   'Li1 Sn1 Sb1'
_cell_volume   90.35375160
_cell_formula_units_Z   1
loop_
 _symmetry_equiv_pos_site_id
 _symmetry_equiv_pos_as_xyz
  1  'x, y, z'
loop_
 _atom_site_type_symbol
 _atom_site_label
 _atom_site_symmetry_multiplicity
 _atom_site_fract_x
 _atom_site_fract_y
 _atom_site_fract_z
 _atom_site_occupancy
  Li  Li0  1  -0.00000015  0.00000014  -0.00000004  1
  Sn  Sn1  1  0.50000001  0.49999999  0.49999998  1
  Sb  Sb2  1  0.75000013  0.74999987  0.75000006  1
