# generated using pymatgen
data_LiTbTe2
_symmetry_space_group_name_H-M   'P 1'
_cell_length_a   9.66548577
_cell_length_b   9.66545176
_cell_length_c   9.66544488
_cell_angle_alpha   107.30980602
_cell_angle_beta   107.30992141
_cell_angle_gamma   107.30977667
_symmetry_Int_Tables_number   1
_chemical_formula_structural   LiTbTe2
_chemical_formula_sum   'Li6 Tb6 Te12'
_cell_volume   745.54520482
_cell_formula_units_Z   6
loop_
 _symmetry_equiv_pos_site_id
 _symmetry_equiv_pos_as_xyz
  1  'x, y, z'
loop_
 _atom_site_type_symbol
 _atom_site_label
 _atom_site_symmetry_multiplicity
 _atom_site_fract_x
 _atom_site_fract_y
 _atom_site_fract_z
 _atom_site_occupancy
  Li  Li0  1  0.45204536  0.10634167  0.36320118  1
  Li  Li1  1  0.10634174  0.36320122  0.45204563  1
  Li  Li2  1  0.36320105  0.45204544  0.10634166  1
  Li  Li3  1  0.54795455  0.89365846  0.63679884  1
  Li  Li4  1  0.89365847  0.63679887  0.54795450  1
  Li  Li5  1  0.63679892  0.54795456  0.89365845  1
  Tb  Tb6  1  0.22562194  0.07276203  0.69260849  1
  Tb  Tb7  1  0.77437798  0.92723796  0.30739149  1
  Tb  Tb8  1  0.92723788  0.30739148  0.77437831  1
  Tb  Tb9  1  0.30739162  0.77437837  0.92723801  1
  Tb  Tb10  1  0.07276213  0.69260848  0.22562164  1
  Tb  Tb11  1  0.69260840  0.22562162  0.07276204  1
  Te  Te12  1  0.73061004  0.57632565  0.20992770  1
  Te  Te13  1  0.20992772  0.73061043  0.57632567  1
  Te  Te14  1  0.42367402  0.79007228  0.26938924  1
  Te  Te15  1  0.57632595  0.20992763  0.73061066  1
  Te  Te16  1  0.26938995  0.42367435  0.79007224  1
  Te  Te17  1  0.79007236  0.26938959  0.42367431  1
  Te  Te18  1  0.65304596  0.87818782  0.95667622  1
  Te  Te19  1  0.95667550  0.65304533  0.87818776  1
  Te  Te20  1  0.87818733  0.95667572  0.65304538  1
  Te  Te21  1  0.34695405  0.12181218  0.04332377  1
  Te  Te22  1  0.04332446  0.34695462  0.12181223  1
  Te  Te23  1  0.12181264  0.04332424  0.34695458  1
