# generated using pymatgen
data_LiTiH4
_symmetry_space_group_name_H-M   'P 1'
_cell_length_a   4.65896863
_cell_length_b   4.37601530
_cell_length_c   4.37979169
_cell_angle_alpha   90.00000164
_cell_angle_beta   90.00003659
_cell_angle_gamma   89.95637050
_symmetry_Int_Tables_number   1
_chemical_formula_structural   LiTiH4
_chemical_formula_sum   'Li2 Ti2 H8'
_cell_volume   89.29393202
_cell_formula_units_Z   2
loop_
 _symmetry_equiv_pos_site_id
 _symmetry_equiv_pos_as_xyz
  1  'x, y, z'
loop_
 _atom_site_type_symbol
 _atom_site_label
 _atom_site_symmetry_multiplicity
 _atom_site_fract_x
 _atom_site_fract_y
 _atom_site_fract_z
 _atom_site_occupancy
  Li  Li0  1  0.50000004  0.24999994  0.75153234  1
  Li  Li1  1  0.49999991  0.75000004  0.24846778  1
  Ti  Ti2  1  0.00000042  0.25000003  0.25010867  1
  Ti  Ti3  1  -0.00000032  0.74999985  0.74989061  1
  H  H4  1  0.22605735  -0.03485524  0.46547833  1
  H  H5  1  0.77394279  0.53485580  0.46547827  1
  H  H6  1  0.77394253  0.03486719  0.53450990  1
  H  H7  1  0.22605728  0.46513234  0.53451000  1
  H  H8  1  0.22640955  0.03312135  0.96618478  1
  H  H9  1  0.77359069  0.46687831  0.96618453  1
  H  H10  1  0.77359022  0.96689089  0.03382730  1
  H  H11  1  0.22640954  0.53310951  0.03382749  1
