# generated using pymatgen
data_Lu2MoC3
_symmetry_space_group_name_H-M   'P 1'
_cell_length_a   7.61874748
_cell_length_b   7.61882071
_cell_length_c   7.61878007
_cell_angle_alpha   109.47144985
_cell_angle_beta   109.47169301
_cell_angle_gamma   109.47020714
_symmetry_Int_Tables_number   1
_chemical_formula_structural   Lu2MoC3
_chemical_formula_sum   'Lu8 Mo4 C12'
_cell_volume   340.43684022
_cell_formula_units_Z   4
loop_
 _symmetry_equiv_pos_site_id
 _symmetry_equiv_pos_as_xyz
  1  'x, y, z'
loop_
 _atom_site_type_symbol
 _atom_site_label
 _atom_site_symmetry_multiplicity
 _atom_site_fract_x
 _atom_site_fract_y
 _atom_site_fract_z
 _atom_site_occupancy
  Lu  Lu0  1  0.93191698  0.50000045  -0.00000420  1
  Lu  Lu1  1  0.56808605  0.49999959  0.00000696  1
  Lu  Lu2  1  0.50000632  -0.00000282  0.56808581  1
  Lu  Lu3  1  0.49999048  -0.00000403  0.93191112  1
  Lu  Lu4  1  0.56808175  0.56808072  0.56808490  1
  Lu  Lu5  1  0.93191644  0.93191358  0.93191888  1
  Lu  Lu6  1  0.00000434  0.56808489  0.50000406  1
  Lu  Lu7  1  -0.00000298  0.93191562  0.50000136  1
  Mo  Mo8  1  0.50000453  0.00000137  0.25000250  1
  Mo  Mo9  1  0.25000193  0.50000430  -0.00000215  1
  Mo  Mo10  1  0.24999434  0.25000696  0.24999597  1
  Mo  Mo11  1  -0.00000014  0.24999752  0.49999535  1
  C  C12  1  0.94208668  0.24999010  0.19209464  1
  C  C13  1  0.94211073  0.19210298  0.75000693  1
  C  C14  1  0.55789899  0.30789731  0.25000277  1
  C  C15  1  0.74999513  0.30790109  0.55788912  1
  C  C16  1  0.75000545  0.94211167  0.19209787  1
  C  C17  1  0.55789496  0.74999226  0.30790002  1
  C  C18  1  0.30789371  0.24998682  0.55788766  1
  C  C19  1  0.25000210  0.55790416  0.30789776  1
  C  C20  1  0.25000074  0.19210277  0.94210184  1
  C  C21  1  0.19210849  0.94211315  0.25001306  1
  C  C22  1  0.30790291  0.55789303  0.74999868  1
  C  C23  1  0.19210006  0.75000655  0.94210908  1
