# generated using pymatgen
data_LuAlN2
_symmetry_space_group_name_H-M   'P 1'
_cell_length_a   5.25757883
_cell_length_b   3.22292069
_cell_length_c   6.07863498
_cell_angle_alpha   105.35007280
_cell_angle_beta   98.67247195
_cell_angle_gamma   90.00759879
_symmetry_Int_Tables_number   1
_chemical_formula_structural   LuAlN2
_chemical_formula_sum   'Lu2 Al2 N4'
_cell_volume   98.10425678
_cell_formula_units_Z   2
loop_
 _symmetry_equiv_pos_site_id
 _symmetry_equiv_pos_as_xyz
  1  'x, y, z'
loop_
 _atom_site_type_symbol
 _atom_site_label
 _atom_site_symmetry_multiplicity
 _atom_site_fract_x
 _atom_site_fract_y
 _atom_site_fract_z
 _atom_site_occupancy
  Lu  Lu0  1  0.49605852  0.46444002  -0.00827390  1
  Lu  Lu1  1  0.43591151  0.71020175  0.48164828  1
  Al  Al2  1  -0.04222351  0.07499722  0.21195238  1
  Al  Al3  1  -0.00692206  0.81041067  0.68474982  1
  N  N4  1  0.75290202  0.91086545  0.88395177  1
  N  N5  1  0.31855985  0.07440905  0.21028222  1
  N  N6  1  0.20701161  0.30942629  0.68237743  1
  N  N7  1  0.83870206  0.64524956  0.35331201  1
