# generated using pymatgen
data_LuBAs2
_symmetry_space_group_name_H-M   'P 1'
_cell_length_a   9.30359840
_cell_length_b   9.30296809
_cell_length_c   9.30319001
_cell_angle_alpha   109.54778804
_cell_angle_beta   109.52904040
_cell_angle_gamma   109.52143054
_symmetry_Int_Tables_number   1
_chemical_formula_structural   LuBAs2
_chemical_formula_sum   'Lu6 B6 As12'
_cell_volume   618.42795135
_cell_formula_units_Z   6
loop_
 _symmetry_equiv_pos_site_id
 _symmetry_equiv_pos_as_xyz
  1  'x, y, z'
loop_
 _atom_site_type_symbol
 _atom_site_label
 _atom_site_symmetry_multiplicity
 _atom_site_fract_x
 _atom_site_fract_y
 _atom_site_fract_z
 _atom_site_occupancy
  Lu  Lu0  1  0.55460927  0.18218063  0.45771911  1
  Lu  Lu1  1  0.18223949  0.45772117  0.55473059  1
  Lu  Lu2  1  0.45775652  0.55469229  0.18224655  1
  Lu  Lu3  1  0.44538845  0.81782014  0.54228504  1
  Lu  Lu4  1  0.81776885  0.54229006  0.44527815  1
  Lu  Lu5  1  0.54225203  0.44530960  0.81774966  1
  B  B6  1  0.35510056  0.07773025  0.61643140  1
  B  B7  1  0.64488367  -0.07773349  0.38357159  1
  B  B8  1  -0.07784160  0.38366768  0.64493207  1
  B  B9  1  0.38362699  0.64491313  -0.07773193  1
  B  B10  1  0.07783172  0.61633365  0.35505574  1
  B  B11  1  0.61636814  0.35506134  0.07771701  1
  As  As12  1  0.81782017  0.58666544  0.15995701  1
  As  As13  1  0.15998415  0.81778920  0.58659062  1
  As  As14  1  0.41340292  0.84009506  0.18222307  1
  As  As15  1  0.58659197  0.15990451  0.81778312  1
  As  As16  1  0.18217694  0.41332413  0.84004181  1
  As  As17  1  0.84001819  0.18221357  0.41340255  1
  As  As18  1  0.52641298  0.74787003  0.82976654  1
  As  As19  1  0.82981346  0.52645157  0.74786005  1
  As  As20  1  0.74791160  0.82981980  0.52648050  1
  As  As21  1  0.47359268  0.25213601  0.17024281  1
  As  As22  1  0.17019962  0.47355771  0.25214529  1
  As  As23  1  0.25209123  0.17018652  0.47352165  1
