# generated using pymatgen
data_LuBSb2
_symmetry_space_group_name_H-M   'P 1'
_cell_length_a   3.88860235
_cell_length_b   3.88860170
_cell_length_c   6.60513782
_cell_angle_alpha   89.99994709
_cell_angle_beta   90.00003113
_cell_angle_gamma   119.99978741
_symmetry_Int_Tables_number   1
_chemical_formula_structural   LuBSb2
_chemical_formula_sum   'Lu1 B1 Sb2'
_cell_volume   86.49687985
_cell_formula_units_Z   1
loop_
 _symmetry_equiv_pos_site_id
 _symmetry_equiv_pos_as_xyz
  1  'x, y, z'
loop_
 _atom_site_type_symbol
 _atom_site_label
 _atom_site_symmetry_multiplicity
 _atom_site_fract_x
 _atom_site_fract_y
 _atom_site_fract_z
 _atom_site_occupancy
  Lu  Lu0  1  0.00000010  0.00000008  0.49999985  1
  B  B1  1  -0.00000016  0.00000002  0.00000009  1
  Sb  Sb2  1  0.33333345  0.66666679  0.19115707  1
  Sb  Sb3  1  0.66666661  0.33333311  0.80884299  1
