# generated using pymatgen
data_LuFeP2
_symmetry_space_group_name_H-M   'P 1'
_cell_length_a   3.43183426
_cell_length_b   4.74537495
_cell_length_c   7.77554624
_cell_angle_alpha   89.94316912
_cell_angle_beta   102.96112686
_cell_angle_gamma   89.99054008
_symmetry_Int_Tables_number   1
_chemical_formula_structural   LuFeP2
_chemical_formula_sum   'Lu2 Fe2 P4'
_cell_volume   123.40119149
_cell_formula_units_Z   2
loop_
 _symmetry_equiv_pos_site_id
 _symmetry_equiv_pos_as_xyz
  1  'x, y, z'
loop_
 _atom_site_type_symbol
 _atom_site_label
 _atom_site_symmetry_multiplicity
 _atom_site_fract_x
 _atom_site_fract_y
 _atom_site_fract_z
 _atom_site_occupancy
  Lu  Lu0  1  0.16934955  0.21050438  0.83250060  1
  Lu  Lu1  1  -0.16952504  0.71192800  0.16748102  1
  Fe  Fe2  1  0.04361223  0.69379443  0.58404088  1
  Fe  Fe3  1  -0.04349911  0.19432405  0.41603115  1
  P  P4  1  0.53982247  0.36273970  0.57736517  1
  P  P5  1  0.46051813  0.86318121  0.42256374  1
  P  P6  1  0.65427515  0.73088749  0.80185554  1
  P  P7  1  0.34544661  0.23264074  0.19816189  1
