# generated using pymatgen
data_LuP2Rh
_symmetry_space_group_name_H-M   'P 1'
_cell_length_a   3.76940011
_cell_length_b   6.89278678
_cell_length_c   6.56707593
_cell_angle_alpha   61.62681634
_cell_angle_beta   89.95445689
_cell_angle_gamma   74.12951814
_symmetry_Int_Tables_number   1
_chemical_formula_structural   LuP2Rh
_chemical_formula_sum   'Lu2 P4 Rh2'
_cell_volume   142.71282179
_cell_formula_units_Z   2
loop_
 _symmetry_equiv_pos_site_id
 _symmetry_equiv_pos_as_xyz
  1  'x, y, z'
loop_
 _atom_site_type_symbol
 _atom_site_label
 _atom_site_symmetry_multiplicity
 _atom_site_fract_x
 _atom_site_fract_y
 _atom_site_fract_z
 _atom_site_occupancy
  Lu  Lu0  1  0.24999823  0.49999896  0.25000032  1
  Lu  Lu1  1  0.74999764  0.50000102  0.74999972  1
  P  P2  1  0.40303336  0.19361493  0.07091209  1
  P  P3  1  0.90303251  0.19361578  0.57091226  1
  P  P4  1  0.59696141  0.80638510  0.92908788  1
  P  P5  1  0.09696183  0.80638421  0.42908773  1
  Rh  Rh6  1  0.49999687  -0.00000002  0.50000001  1
  Rh  Rh7  1  0.99999714  0.00000001  -0.00000000  1
