# generated using pymatgen
data_LuPC2
_symmetry_space_group_name_H-M   'P 1'
_cell_length_a   3.30890875
_cell_length_b   7.94041516
_cell_length_c   7.81904196
_cell_angle_alpha   63.43427697
_cell_angle_beta   90.01223157
_cell_angle_gamma   89.94998353
_symmetry_Int_Tables_number   1
_chemical_formula_structural   LuPC2
_chemical_formula_sum   'Lu2 P2 C4'
_cell_volume   183.74846803
_cell_formula_units_Z   2
loop_
 _symmetry_equiv_pos_site_id
 _symmetry_equiv_pos_as_xyz
  1  'x, y, z'
loop_
 _atom_site_type_symbol
 _atom_site_label
 _atom_site_symmetry_multiplicity
 _atom_site_fract_x
 _atom_site_fract_y
 _atom_site_fract_z
 _atom_site_occupancy
  Lu  Lu0  1  0.00023822  0.80937128  0.33774735  1
  Lu  Lu1  1  -0.00023813  0.19062870  0.66225262  1
  P  P2  1  0.50000253  0.49189908  0.36982478  1
  P  P3  1  0.49999725  0.50810098  0.63017526  1
  C  C4  1  0.49971071  -0.05735504  0.08663193  1
  C  C5  1  0.50028932  0.05735505  0.91336808  1
  C  C6  1  0.49990867  0.94477652  0.46283254  1
  C  C7  1  0.50009144  0.05522343  0.53716744  1
