# generated using pymatgen
data_LuSb2Os
_symmetry_space_group_name_H-M   'P 1'
_cell_length_a   4.28788274
_cell_length_b   4.28788376
_cell_length_c   5.97058800
_cell_angle_alpha   89.99999452
_cell_angle_beta   90.00001500
_cell_angle_gamma   120.00000303
_symmetry_Int_Tables_number   1
_chemical_formula_structural   LuSb2Os
_chemical_formula_sum   'Lu1 Sb2 Os1'
_cell_volume   95.06783985
_cell_formula_units_Z   1
loop_
 _symmetry_equiv_pos_site_id
 _symmetry_equiv_pos_as_xyz
  1  'x, y, z'
loop_
 _atom_site_type_symbol
 _atom_site_label
 _atom_site_symmetry_multiplicity
 _atom_site_fract_x
 _atom_site_fract_y
 _atom_site_fract_z
 _atom_site_occupancy
  Lu  Lu0  1  -0.00000004  -0.00000001  -0.00000002  1
  Sb  Sb1  1  0.66666663  0.33333329  0.30568387  1
  Sb  Sb2  1  0.33333340  0.66666676  0.69431613  1
  Os  Os3  1  0.00000001  -0.00000003  0.50000002  1
