# generated using pymatgen
data_LuSCl
_symmetry_space_group_name_H-M   'P 1'
_cell_length_a   4.50551072
_cell_length_b   4.50551173
_cell_length_c   4.50551253
_cell_angle_alpha   60.00000581
_cell_angle_beta   60.00003216
_cell_angle_gamma   60.00002443
_symmetry_Int_Tables_number   1
_chemical_formula_structural   LuSCl
_chemical_formula_sum   'Lu1 S1 Cl1'
_cell_volume   64.67218893
_cell_formula_units_Z   1
loop_
 _symmetry_equiv_pos_site_id
 _symmetry_equiv_pos_as_xyz
  1  'x, y, z'
loop_
 _atom_site_type_symbol
 _atom_site_label
 _atom_site_symmetry_multiplicity
 _atom_site_fract_x
 _atom_site_fract_y
 _atom_site_fract_z
 _atom_site_occupancy
  Lu  Lu0  1  0.50000039  0.49999988  0.49999999  1
  S  S1  1  -0.00000015  0.00000003  -0.00000005  1
  Cl  Cl2  1  0.24999976  0.25000008  0.25000006  1
