# generated using pymatgen
data_Mg2AsBr
_symmetry_space_group_name_H-M   'P 1'
_cell_length_a   3.99197623
_cell_length_b   3.99197670
_cell_length_c   7.23961176
_cell_angle_alpha   90.00073813
_cell_angle_beta   89.99922470
_cell_angle_gamma   120.00064568
_symmetry_Int_Tables_number   1
_chemical_formula_structural   Mg2AsBr
_chemical_formula_sum   'Mg2 As1 Br1'
_cell_volume   99.91231624
_cell_formula_units_Z   1
loop_
 _symmetry_equiv_pos_site_id
 _symmetry_equiv_pos_as_xyz
  1  'x, y, z'
loop_
 _atom_site_type_symbol
 _atom_site_label
 _atom_site_symmetry_multiplicity
 _atom_site_fract_x
 _atom_site_fract_y
 _atom_site_fract_z
 _atom_site_occupancy
  Mg  Mg0  1  0.66666592  0.33333363  0.68276865  1
  Mg  Mg1  1  0.33333401  0.66666606  0.31723096  1
  As  As2  1  -0.00000003  -0.00000025  0.50000004  1
  Br  Br3  1  0.00000011  0.00000056  0.00000035  1
