# generated using pymatgen
data_MgAgSb
_symmetry_space_group_name_H-M   'P 1'
_cell_length_a   4.58467997
_cell_length_b   4.58467987
_cell_length_c   4.58467989
_cell_angle_alpha   59.99994711
_cell_angle_beta   59.99994691
_cell_angle_gamma   59.99994717
_symmetry_Int_Tables_number   1
_chemical_formula_structural   MgAgSb
_chemical_formula_sum   'Mg1 Ag1 Sb1'
_cell_volume   68.14147651
_cell_formula_units_Z   1
loop_
 _symmetry_equiv_pos_site_id
 _symmetry_equiv_pos_as_xyz
  1  'x, y, z'
loop_
 _atom_site_type_symbol
 _atom_site_label
 _atom_site_symmetry_multiplicity
 _atom_site_fract_x
 _atom_site_fract_y
 _atom_site_fract_z
 _atom_site_occupancy
  Mg  Mg0  1  0.24999996  0.24999996  0.24999995  1
  Ag  Ag1  1  -0.00000004  -0.00000004  -0.00000003  1
  Sb  Sb2  1  0.50000007  0.50000008  0.50000008  1
