# generated using pymatgen
data_MgAs2W
_symmetry_space_group_name_H-M   'P 1'
_cell_length_a   8.72436245
_cell_length_b   8.72426638
_cell_length_c   8.72422773
_cell_angle_alpha   111.64676988
_cell_angle_beta   111.64699841
_cell_angle_gamma   111.64890486
_symmetry_Int_Tables_number   1
_chemical_formula_structural   MgAs2W
_chemical_formula_sum   'Mg6 As12 W6'
_cell_volume   465.46046419
_cell_formula_units_Z   6
loop_
 _symmetry_equiv_pos_site_id
 _symmetry_equiv_pos_as_xyz
  1  'x, y, z'
loop_
 _atom_site_type_symbol
 _atom_site_label
 _atom_site_symmetry_multiplicity
 _atom_site_fract_x
 _atom_site_fract_y
 _atom_site_fract_z
 _atom_site_occupancy
  Mg  Mg0  1  0.17577401  0.38981868  0.41794039  1
  Mg  Mg1  1  0.58206366  0.82422179  0.61017674  1
  Mg  Mg2  1  0.82422580  0.61017723  0.58205889  1
  Mg  Mg3  1  0.38981337  0.41793115  0.17577506  1
  Mg  Mg4  1  0.41793000  0.17577489  0.38981989  1
  Mg  Mg5  1  0.61018919  0.58206784  0.82422443  1
  As  As6  1  0.07911065  0.03249270  0.37305321  1
  As  As7  1  0.03249409  0.37306071  0.07912477  1
  As  As8  1  0.37305662  0.07911478  0.03249040  1
  As  As9  1  0.92088943  0.96750924  0.62694865  1
  As  As10  1  0.96751307  0.62694588  0.92088356  1
  As  As11  1  0.62694424  0.92088755  0.96750722  1
  As  As12  1  0.81277188  0.25223760  0.39336169  1
  As  As13  1  0.25224516  0.39336045  0.81277641  1
  As  As14  1  0.60663382  0.18722302  0.74776690  1
  As  As15  1  0.18722707  0.74776779  0.60663007  1
  As  As16  1  0.74776392  0.60663279  0.18722413  1
  As  As17  1  0.39335331  0.81277670  0.25223708  1
  W  W18  1  0.25851778  0.69430874  0.87809916  1
  W  W19  1  0.69430789  0.87809610  0.25852397  1
  W  W20  1  0.87810903  0.25851891  0.69431420  1
  W  W21  1  0.74147608  0.30569334  0.12189838  1
  W  W22  1  0.30569596  0.12190420  0.74147470  1
  W  W23  1  0.12189397  0.74147794  0.30569011  1
