# generated using pymatgen
data_MgIF
_symmetry_space_group_name_H-M   'P 1'
_cell_length_a   4.66141350
_cell_length_b   4.66141251
_cell_length_c   4.66141270
_cell_angle_alpha   59.99958906
_cell_angle_beta   59.99958333
_cell_angle_gamma   59.99957580
_symmetry_Int_Tables_number   1
_chemical_formula_structural   MgIF
_chemical_formula_sum   'Mg1 I1 F1'
_cell_volume   71.61988446
_cell_formula_units_Z   1
loop_
 _symmetry_equiv_pos_site_id
 _symmetry_equiv_pos_as_xyz
  1  'x, y, z'
loop_
 _atom_site_type_symbol
 _atom_site_label
 _atom_site_symmetry_multiplicity
 _atom_site_fract_x
 _atom_site_fract_y
 _atom_site_fract_z
 _atom_site_occupancy
  Mg  Mg0  1  0.50000037  0.50000034  0.50000046  1
  I  I1  1  0.24999983  0.24999985  0.24999982  1
  F  F2  1  -0.00000020  -0.00000020  -0.00000028  1
