# generated using pymatgen
data_MgNiS2
_symmetry_space_group_name_H-M   'P 1'
_cell_length_a   3.31871282
_cell_length_b   3.40354641
_cell_length_c   11.07448376
_cell_angle_alpha   81.86737753
_cell_angle_beta   89.98788286
_cell_angle_gamma   90.00169734
_symmetry_Int_Tables_number   1
_chemical_formula_structural   MgNiS2
_chemical_formula_sum   'Mg2 Ni2 S4'
_cell_volume   123.83264187
_cell_formula_units_Z   2
loop_
 _symmetry_equiv_pos_site_id
 _symmetry_equiv_pos_as_xyz
  1  'x, y, z'
loop_
 _atom_site_type_symbol
 _atom_site_label
 _atom_site_symmetry_multiplicity
 _atom_site_fract_x
 _atom_site_fract_y
 _atom_site_fract_z
 _atom_site_occupancy
  Mg  Mg0  1  -0.00007968  0.85516498  0.69047757  1
  Mg  Mg1  1  0.00007959  0.14487255  0.30952328  1
  Ni  Ni2  1  -0.00021243  0.29899772  0.90396942  1
  Ni  Ni3  1  0.00021188  0.70095646  0.09603085  1
  S  S4  1  0.49997607  0.40227856  0.59734457  1
  S  S5  1  0.50002351  0.59777466  0.40265063  1
  S  S6  1  0.49973041  0.81914175  0.86814312  1
  S  S7  1  0.50027065  0.18081332  0.13186056  1
