# generated using pymatgen
data_MgPtF4
_symmetry_space_group_name_H-M   'P 1'
_cell_length_a   5.25127484
_cell_length_b   5.70948621
_cell_length_c   5.53251574
_cell_angle_alpha   89.99980956
_cell_angle_beta   90.00007688
_cell_angle_gamma   105.78377111
_symmetry_Int_Tables_number   1
_chemical_formula_structural   MgPtF4
_chemical_formula_sum   'Mg2 Pt2 F8'
_cell_volume   159.62198199
_cell_formula_units_Z   2
loop_
 _symmetry_equiv_pos_site_id
 _symmetry_equiv_pos_as_xyz
  1  'x, y, z'
loop_
 _atom_site_type_symbol
 _atom_site_label
 _atom_site_symmetry_multiplicity
 _atom_site_fract_x
 _atom_site_fract_y
 _atom_site_fract_z
 _atom_site_occupancy
  Mg  Mg0  1  -0.00000003  0.75000036  0.85530189  1
  Mg  Mg1  1  0.00000092  0.25000009  0.14469842  1
  Pt  Pt2  1  0.50000047  0.25000043  0.63319262  1
  Pt  Pt3  1  0.50000026  0.74999999  0.36680797  1
  F  F4  1  0.77700224  -0.14998967  0.61926579  1
  F  F5  1  0.22299421  0.64998788  0.61926467  1
  F  F6  1  0.22299781  0.14998931  0.38073485  1
  F  F7  1  0.77700583  0.35001151  0.38073530  1
  F  F8  1  0.20975957  0.61810401  0.11286439  1
  F  F9  1  0.79024108  0.88189692  0.11286567  1
  F  F10  1  0.79024115  0.38189661  0.88713579  1
  F  F11  1  0.20975950  0.11810356  0.88713464  1
