# generated using pymatgen
data_MgReC
_symmetry_space_group_name_H-M   'P 1'
_cell_length_a   3.91873207
_cell_length_b   3.91872936
_cell_length_c   3.91873092
_cell_angle_alpha   59.99956310
_cell_angle_beta   59.99955730
_cell_angle_gamma   59.99954925
_symmetry_Int_Tables_number   1
_chemical_formula_structural   MgReC
_chemical_formula_sum   'Mg1 Re1 C1'
_cell_volume   42.55170060
_cell_formula_units_Z   1
loop_
 _symmetry_equiv_pos_site_id
 _symmetry_equiv_pos_as_xyz
  1  'x, y, z'
loop_
 _atom_site_type_symbol
 _atom_site_label
 _atom_site_symmetry_multiplicity
 _atom_site_fract_x
 _atom_site_fract_y
 _atom_site_fract_z
 _atom_site_occupancy
  Mg  Mg0  1  0.50000011  0.50000005  0.49999998  1
  Re  Re1  1  0.75000000  0.74999986  0.75000003  1
  C  C2  1  -0.00000011  0.00000009  -0.00000000  1
