# generated using pymatgen
data_MgSi2W
_symmetry_space_group_name_H-M   'P 1'
_cell_length_a   6.93682103
_cell_length_b   6.93677202
_cell_length_c   6.57410785
_cell_angle_alpha   61.85369089
_cell_angle_beta   61.85396297
_cell_angle_gamma   56.78578316
_symmetry_Int_Tables_number   1
_chemical_formula_structural   MgSi2W
_chemical_formula_sum   'Mg2 Si4 W2'
_cell_volume   223.39214858
_cell_formula_units_Z   2
loop_
 _symmetry_equiv_pos_site_id
 _symmetry_equiv_pos_as_xyz
  1  'x, y, z'
loop_
 _atom_site_type_symbol
 _atom_site_label
 _atom_site_symmetry_multiplicity
 _atom_site_fract_x
 _atom_site_fract_y
 _atom_site_fract_z
 _atom_site_occupancy
  Mg  Mg0  1  0.28015612  0.71985228  0.74999579  1
  Mg  Mg1  1  0.71984528  0.28014893  0.25000306  1
  Si  Si2  1  0.24338295  0.24076615  0.25658589  1
  Si  Si3  1  0.75923495  0.75661310  0.24341353  1
  Si  Si4  1  0.24076350  0.24338529  0.75658803  1
  Si  Si5  1  0.75661558  0.75923260  0.74341538  1
  W  W6  1  0.50000069  0.00000093  0.49999917  1
  W  W7  1  0.00000092  0.50000070  -0.00000086  1
