# generated using pymatgen
data_Mn2BiSb3
_symmetry_space_group_name_H-M   'P 1'
_cell_length_a   9.24496878
_cell_length_b   9.24511704
_cell_length_c   9.24501079
_cell_angle_alpha   109.47164456
_cell_angle_beta   109.47093370
_cell_angle_gamma   109.47144758
_symmetry_Int_Tables_number   1
_chemical_formula_structural   Mn2BiSb3
_chemical_formula_sum   'Mn8 Bi4 Sb12'
_cell_volume   608.27706669
_cell_formula_units_Z   4
loop_
 _symmetry_equiv_pos_site_id
 _symmetry_equiv_pos_as_xyz
  1  'x, y, z'
loop_
 _atom_site_type_symbol
 _atom_site_label
 _atom_site_symmetry_multiplicity
 _atom_site_fract_x
 _atom_site_fract_y
 _atom_site_fract_z
 _atom_site_occupancy
  Mn  Mn0  1  0.49999832  -0.00000097  0.94520136  1
  Mn  Mn1  1  0.55479713  0.50000154  0.00000235  1
  Mn  Mn2  1  0.94520403  0.94520411  0.94520317  1
  Mn  Mn3  1  0.00000196  0.55479586  0.50000061  1
  Mn  Mn4  1  0.50000082  0.00000225  0.55479894  1
  Mn  Mn5  1  0.94519609  0.49999817  0.00000062  1
  Mn  Mn6  1  0.00000138  0.94521032  0.49999970  1
  Mn  Mn7  1  0.55479376  0.55479266  0.55479222  1
  Bi  Bi8  1  0.24999330  0.24999305  0.24999319  1
  Bi  Bi9  1  0.00000000  0.25000218  0.50000135  1
  Bi  Bi10  1  0.24999993  0.50000142  -0.00000093  1
  Bi  Bi11  1  0.50000213  -0.00000064  0.25000679  1
  Sb  Sb12  1  0.64476428  0.74999852  0.39475999  1
  Sb  Sb13  1  0.25000190  0.64476393  0.39476213  1
  Sb  Sb14  1  0.75000469  0.85523828  0.10523699  1
  Sb  Sb15  1  0.64476366  0.39476282  0.24999979  1
  Sb  Sb16  1  0.85524138  0.10523649  0.75000467  1
  Sb  Sb17  1  0.39476268  0.25000042  0.64476358  1
  Sb  Sb18  1  0.39475988  0.64476102  0.74999765  1
  Sb  Sb19  1  0.24999711  0.10523642  0.85523408  1
  Sb  Sb20  1  0.10524137  0.85524087  0.25000437  1
  Sb  Sb21  1  0.74999789  0.39475867  0.64475711  1
  Sb  Sb22  1  0.85523836  0.24999762  0.10524053  1
  Sb  Sb23  1  0.10523793  0.75000497  0.85523975  1
