# generated using pymatgen
data_MnAs2Pb
_symmetry_space_group_name_H-M   'P 1'
_cell_length_a   3.76215206
_cell_length_b   3.76214154
_cell_length_c   6.87350020
_cell_angle_alpha   89.99985868
_cell_angle_beta   89.99992991
_cell_angle_gamma   120.00017247
_symmetry_Int_Tables_number   1
_chemical_formula_structural   MnAs2Pb
_chemical_formula_sum   'Mn1 As2 Pb1'
_cell_volume   84.25182216
_cell_formula_units_Z   1
loop_
 _symmetry_equiv_pos_site_id
 _symmetry_equiv_pos_as_xyz
  1  'x, y, z'
loop_
 _atom_site_type_symbol
 _atom_site_label
 _atom_site_symmetry_multiplicity
 _atom_site_fract_x
 _atom_site_fract_y
 _atom_site_fract_z
 _atom_site_occupancy
  Mn  Mn0  1  0.00000009  0.00000007  0.00000001  1
  As  As1  1  0.66666619  0.33333139  0.84434444  1
  As  As2  1  0.33333391  0.66666870  0.15565558  1
  Pb  Pb3  1  -0.00000018  -0.00000017  0.49999997  1
