# generated using pymatgen
data_MnCuAs
_symmetry_space_group_name_H-M   'P 1'
_cell_length_a   4.11520564
_cell_length_b   4.11520525
_cell_length_c   4.11520522
_cell_angle_alpha   59.99941052
_cell_angle_beta   59.99940859
_cell_angle_gamma   59.99941225
_symmetry_Int_Tables_number   1
_chemical_formula_structural   MnCuAs
_chemical_formula_sum   'Mn1 Cu1 As1'
_cell_volume   49.27807544
_cell_formula_units_Z   1
loop_
 _symmetry_equiv_pos_site_id
 _symmetry_equiv_pos_as_xyz
  1  'x, y, z'
loop_
 _atom_site_type_symbol
 _atom_site_label
 _atom_site_symmetry_multiplicity
 _atom_site_fract_x
 _atom_site_fract_y
 _atom_site_fract_z
 _atom_site_occupancy
  Mn  Mn0  1  0.50000011  0.49999992  0.49999997  1
  Cu  Cu1  1  -0.00000012  0.00000002  0.00000004  1
  As  As2  1  0.75000001  0.75000006  0.74999999  1
