# generated using pymatgen
data_MnIN2
_symmetry_space_group_name_H-M   'P 1'
_cell_length_a   3.27705184
_cell_length_b   7.16461887
_cell_length_c   6.50841027
_cell_angle_alpha   74.80769781
_cell_angle_beta   90.00000315
_cell_angle_gamma   90.00000146
_symmetry_Int_Tables_number   1
_chemical_formula_structural   MnIN2
_chemical_formula_sum   'Mn2 I2 N4'
_cell_volume   147.46939932
_cell_formula_units_Z   2
loop_
 _symmetry_equiv_pos_site_id
 _symmetry_equiv_pos_as_xyz
  1  'x, y, z'
loop_
 _atom_site_type_symbol
 _atom_site_label
 _atom_site_symmetry_multiplicity
 _atom_site_fract_x
 _atom_site_fract_y
 _atom_site_fract_z
 _atom_site_occupancy
  Mn  Mn0  1  0.49999995  0.00000408  0.49994643  1
  Mn  Mn1  1  0.00000001  0.49999632  0.50003453  1
  I  I2  1  0.50000002  0.50000326  -0.00001043  1
  I  I3  1  0.00000002  -0.00000257  0.00001533  1
  N  N4  1  0.00000001  0.47996056  0.23202068  1
  N  N5  1  0.00000006  0.52003184  0.76795183  1
  N  N6  1  0.49999997  -0.01764954  0.23134285  1
  N  N7  1  0.49999996  0.01765606  0.76869878  1
