# generated using pymatgen
data_MnTlI4
_symmetry_space_group_name_H-M   'P 1'
_cell_length_a   7.63364532
_cell_length_b   7.82073487
_cell_length_c   8.41379084
_cell_angle_alpha   90.00000179
_cell_angle_beta   90.00000089
_cell_angle_gamma   97.07379075
_symmetry_Int_Tables_number   1
_chemical_formula_structural   MnTlI4
_chemical_formula_sum   'Mn2 Tl2 I8'
_cell_volume   498.48594750
_cell_formula_units_Z   2
loop_
 _symmetry_equiv_pos_site_id
 _symmetry_equiv_pos_as_xyz
  1  'x, y, z'
loop_
 _atom_site_type_symbol
 _atom_site_label
 _atom_site_symmetry_multiplicity
 _atom_site_fract_x
 _atom_site_fract_y
 _atom_site_fract_z
 _atom_site_occupancy
  Mn  Mn0  1  0.49999999  0.74999999  0.37612673  1
  Mn  Mn1  1  0.49999999  0.25000001  0.62387998  1
  Tl  Tl2  1  -0.00000001  0.75000000  0.82989290  1
  Tl  Tl3  1  0.00000001  0.24999999  0.17011699  1
  I  I4  1  0.72394545  0.37075457  0.85217590  1
  I  I5  1  0.27604301  0.62923476  0.14782078  1
  I  I6  1  0.27605457  0.12924546  0.85217587  1
  I  I7  1  0.72395698  0.87076522  0.14782081  1
  I  I8  1  0.69999342  0.93102929  0.59832475  1
  I  I9  1  0.29999825  0.06896045  0.40167027  1
  I  I10  1  0.30000660  0.56897068  0.59832475  1
  I  I11  1  0.70000174  0.43103957  0.40167027  1
