# generated using pymatgen
data_MoAuC
_symmetry_space_group_name_H-M   'P 1'
_cell_length_a   3.86247712
_cell_length_b   3.86247724
_cell_length_c   3.86247734
_cell_angle_alpha   59.99999282
_cell_angle_beta   59.99999129
_cell_angle_gamma   59.99999519
_symmetry_Int_Tables_number   1
_chemical_formula_structural   MoAuC
_chemical_formula_sum   'Mo1 Au1 C1'
_cell_volume   40.74578906
_cell_formula_units_Z   1
loop_
 _symmetry_equiv_pos_site_id
 _symmetry_equiv_pos_as_xyz
  1  'x, y, z'
loop_
 _atom_site_type_symbol
 _atom_site_label
 _atom_site_symmetry_multiplicity
 _atom_site_fract_x
 _atom_site_fract_y
 _atom_site_fract_z
 _atom_site_occupancy
  Mo  Mo0  1  0.50000005  0.49999998  0.49999998  1
  Au  Au1  1  -0.00000004  0.00000001  0.00000000  1
  C  C2  1  0.24999999  0.25000000  0.25000002  1
