# generated using pymatgen
data_MoI2Cl
_symmetry_space_group_name_H-M   'P 1'
_cell_length_a   3.86306214
_cell_length_b   7.59646760
_cell_length_c   10.79206242
_cell_angle_alpha   92.38381418
_cell_angle_beta   69.95764764
_cell_angle_gamma   100.25384789
_symmetry_Int_Tables_number   1
_chemical_formula_structural   MoI2Cl
_chemical_formula_sum   'Mo2 I4 Cl2'
_cell_volume   292.70401105
_cell_formula_units_Z   2
loop_
 _symmetry_equiv_pos_site_id
 _symmetry_equiv_pos_as_xyz
  1  'x, y, z'
loop_
 _atom_site_type_symbol
 _atom_site_label
 _atom_site_symmetry_multiplicity
 _atom_site_fract_x
 _atom_site_fract_y
 _atom_site_fract_z
 _atom_site_occupancy
  Mo  Mo0  1  -0.00000015  -0.00000003  0.00000001  1
  Mo  Mo1  1  0.50000020  0.00000003  0.49999998  1
  I  I2  1  0.16095731  0.24945072  0.42237864  1
  I  I3  1  0.31274470  0.16599908  0.74854862  1
  I  I4  1  0.68725530  0.83400091  0.25145139  1
  I  I5  1  -0.16095689  0.75054935  0.57762133  1
  Cl  Cl6  1  0.48343653  0.80233577  0.94475135  1
  Cl  Cl7  1  0.51656299  0.19766417  0.05524868  1
