# generated using pymatgen
data_Na2SbH
_symmetry_space_group_name_H-M   'P 1'
_cell_length_a   3.43598921
_cell_length_b   3.43592804
_cell_length_c   8.11437012
_cell_angle_alpha   90.00189828
_cell_angle_beta   89.99817432
_cell_angle_gamma   120.03043654
_symmetry_Int_Tables_number   1
_chemical_formula_structural   Na2SbH
_chemical_formula_sum   'Na2 Sb1 H1'
_cell_volume   82.93694163
_cell_formula_units_Z   1
loop_
 _symmetry_equiv_pos_site_id
 _symmetry_equiv_pos_as_xyz
  1  'x, y, z'
loop_
 _atom_site_type_symbol
 _atom_site_label
 _atom_site_symmetry_multiplicity
 _atom_site_fract_x
 _atom_site_fract_y
 _atom_site_fract_z
 _atom_site_occupancy
  Na  Na0  1  0.66666949  0.33333033  0.82252328  1
  Na  Na1  1  0.33333052  0.66666972  0.17747671  1
  Sb  Sb2  1  -0.00000002  -0.00000006  0.50000000  1
  H  H3  1  0.00000002  0.00000000  0.00000001  1
