# generated using pymatgen
data_NaAlBr4
_symmetry_space_group_name_H-M   'P 1'
_cell_length_a   6.63935824
_cell_length_b   6.66885814
_cell_length_c   7.78187060
_cell_angle_alpha   89.99999754
_cell_angle_beta   90.00000556
_cell_angle_gamma   86.34070000
_symmetry_Int_Tables_number   1
_chemical_formula_structural   NaAlBr4
_chemical_formula_sum   'Na2 Al2 Br8'
_cell_volume   343.85492280
_cell_formula_units_Z   2
loop_
 _symmetry_equiv_pos_site_id
 _symmetry_equiv_pos_as_xyz
  1  'x, y, z'
loop_
 _atom_site_type_symbol
 _atom_site_label
 _atom_site_symmetry_multiplicity
 _atom_site_fract_x
 _atom_site_fract_y
 _atom_site_fract_z
 _atom_site_occupancy
  Na  Na0  1  0.50000001  0.25000002  0.65616696  1
  Na  Na1  1  0.49999998  0.74999999  0.34383299  1
  Al  Al2  1  -0.00000002  0.75000002  0.86098683  1
  Al  Al3  1  0.00000005  0.24999998  0.13901318  1
  Br  Br4  1  0.76601774  -0.10975171  0.64426702  1
  Br  Br5  1  0.23398237  0.60975179  0.64426716  1
  Br  Br6  1  0.23398225  0.10975172  0.35573298  1
  Br  Br7  1  0.76601763  0.39024820  0.35573286  1
  Br  Br8  1  0.20880808  0.55835596  0.10152357  1
  Br  Br9  1  0.79119186  0.94164402  0.10152344  1
  Br  Br10  1  0.79119192  0.44164403  0.89847644  1
  Br  Br11  1  0.20880813  0.05835598  0.89847658  1
