# generated using pymatgen
data_NaBO2
_symmetry_space_group_name_H-M   'P 1'
_cell_length_a   8.04488879
_cell_length_b   8.04503721
_cell_length_c   8.04512311
_cell_angle_alpha   113.93123551
_cell_angle_beta   113.93069586
_cell_angle_gamma   113.93063930
_symmetry_Int_Tables_number   1
_chemical_formula_structural   NaBO2
_chemical_formula_sum   'Na6 B6 O12'
_cell_volume   317.96258064
_cell_formula_units_Z   6
loop_
 _symmetry_equiv_pos_site_id
 _symmetry_equiv_pos_as_xyz
  1  'x, y, z'
loop_
 _atom_site_type_symbol
 _atom_site_label
 _atom_site_symmetry_multiplicity
 _atom_site_fract_x
 _atom_site_fract_y
 _atom_site_fract_z
 _atom_site_occupancy
  Na  Na0  1  0.04011331  0.19264915  0.36532309  1
  Na  Na1  1  0.63467957  0.95989341  0.80735370  1
  Na  Na2  1  0.95988338  0.80735119  0.63467523  1
  Na  Na3  1  0.19264190  0.36531714  0.04010569  1
  Na  Na4  1  0.36531846  0.04010474  0.19264257  1
  Na  Na5  1  0.80735968  0.63468532  0.95989461  1
  B  B6  1  0.45489983  0.69894071  0.98743376  1
  B  B7  1  0.69899066  0.98747179  0.45494107  1
  B  B8  1  0.98750884  0.45492367  0.69898815  1
  B  B9  1  0.54510712  0.30106606  0.01258691  1
  B  B10  1  0.30098880  0.01249721  0.54504054  1
  B  B11  1  0.01251090  0.54506769  0.30101783  1
  O  O12  1  0.19779039  0.00989887  0.36596476  1
  O  O13  1  0.00988854  0.36599116  0.19778926  1
  O  O14  1  0.36597358  0.19778636  0.00988085  1
  O  O15  1  0.80222601  0.99011403  0.63405484  1
  O  O16  1  0.99010494  0.63402715  0.80221705  1
  O  O17  1  0.63401086  0.80220356  0.99011586  1
  O  O18  1  0.76391072  0.19953762  0.49144199  1
  O  O19  1  0.19956325  0.49150548  0.76396985  1
  O  O20  1  0.50854610  0.23609601  0.80048301  1
  O  O21  1  0.23608577  0.80047196  0.50854887  1
  O  O22  1  0.80043717  0.50849347  0.23603076  1
  O  O23  1  0.49146023  0.76390626  0.19949976  1
