# generated using pymatgen
data_NaCoC
_symmetry_space_group_name_H-M   'P 1'
_cell_length_a   3.92216525
_cell_length_b   3.92426933
_cell_length_c   3.92025347
_cell_angle_alpha   60.00889938
_cell_angle_beta   60.01874635
_cell_angle_gamma   59.96973989
_symmetry_Int_Tables_number   1
_chemical_formula_structural   NaCoC
_chemical_formula_sum   'Na1 Co1 C1'
_cell_volume   42.66532773
_cell_formula_units_Z   1
loop_
 _symmetry_equiv_pos_site_id
 _symmetry_equiv_pos_as_xyz
  1  'x, y, z'
loop_
 _atom_site_type_symbol
 _atom_site_label
 _atom_site_symmetry_multiplicity
 _atom_site_fract_x
 _atom_site_fract_y
 _atom_site_fract_z
 _atom_site_occupancy
  Na  Na0  1  0.24999033  0.25000933  0.24999123  1
  Co  Co1  1  0.50000718  0.49999374  0.50000509  1
  C  C2  1  0.00000248  -0.00000306  0.00000368  1
