# generated using pymatgen
data_NaLuSi
_symmetry_space_group_name_H-M   'P 1'
_cell_length_a   4.61052536
_cell_length_b   4.61052724
_cell_length_c   4.61052567
_cell_angle_alpha   59.99990647
_cell_angle_beta   59.99989915
_cell_angle_gamma   59.99990509
_symmetry_Int_Tables_number   1
_chemical_formula_structural   NaLuSi
_chemical_formula_sum   'Na1 Lu1 Si1'
_cell_volume   69.30036221
_cell_formula_units_Z   1
loop_
 _symmetry_equiv_pos_site_id
 _symmetry_equiv_pos_as_xyz
  1  'x, y, z'
loop_
 _atom_site_type_symbol
 _atom_site_label
 _atom_site_symmetry_multiplicity
 _atom_site_fract_x
 _atom_site_fract_y
 _atom_site_fract_z
 _atom_site_occupancy
  Na  Na0  1  0.24999997  0.24999997  0.24999998  1
  Lu  Lu1  1  0.50000000  0.50000003  0.49999991  1
  Si  Si2  1  0.00000003  0.00000000  0.00000010  1
