# generated using pymatgen
data_NaLuC
_symmetry_space_group_name_H-M   'P 1'
_cell_length_a   6.60955699
_cell_length_b   6.60959917
_cell_length_c   22.76042179
_cell_angle_alpha   89.99686743
_cell_angle_beta   89.99612205
_cell_angle_gamma   119.99882818
_symmetry_Int_Tables_number   1
_chemical_formula_structural   NaLuC
_chemical_formula_sum   'Na12 Lu12 C12'
_cell_volume   861.11972566
_cell_formula_units_Z   12
loop_
 _symmetry_equiv_pos_site_id
 _symmetry_equiv_pos_as_xyz
  1  'x, y, z'
loop_
 _atom_site_type_symbol
 _atom_site_label
 _atom_site_symmetry_multiplicity
 _atom_site_fract_x
 _atom_site_fract_y
 _atom_site_fract_z
 _atom_site_occupancy
  Na  Na0  1  0.33331503  0.66670159  0.01448407  1
  Na  Na1  1  0.66667681  0.33330999  -0.01448484  1
  Na  Na2  1  0.66668189  0.33330436  0.51448423  1
  Na  Na3  1  0.33331421  0.66669030  0.48551509  1
  Na  Na4  1  0.00000631  -0.00001454  -0.00000101  1
  Na  Na5  1  0.00000540  -0.00000299  0.50000128  1
  Na  Na6  1  0.16763203  0.83238568  0.24999947  1
  Na  Na7  1  0.33523829  0.16768935  0.74998511  1
  Na  Na8  1  0.83237889  0.16761899  0.75000009  1
  Na  Na9  1  0.83237388  0.66478408  0.75001193  1
  Na  Na10  1  0.66478174  0.83236020  0.25000672  1
  Na  Na11  1  0.16763994  0.33523230  0.24999671  1
  Lu  Lu12  1  0.64571489  -0.02489207  0.62383907  1
  Lu  Lu13  1  -0.02490294  0.64570504  0.12384137  1
  Lu  Lu14  1  0.32942278  -0.02486519  -0.12384434  1
  Lu  Lu15  1  0.64571447  0.67057784  -0.12382047  1
  Lu  Lu16  1  0.02489324  0.35427274  -0.12383586  1
  Lu  Lu17  1  0.02485149  0.67058134  0.62383510  1
  Lu  Lu18  1  0.32941357  0.35429145  0.62381732  1
  Lu  Lu19  1  0.35429027  0.02488701  0.37616154  1
  Lu  Lu20  1  0.67058901  0.02487064  0.12383446  1
  Lu  Lu21  1  -0.02486369  0.32940589  0.37616980  1
  Lu  Lu22  1  0.67058783  0.64571661  0.37617984  1
  Lu  Lu23  1  0.35426830  0.32942014  0.12382048  1
  C  C24  1  0.68477622  0.66234647  0.64289768  1
  C  C25  1  0.68480388  0.02240211  0.85712624  1
  C  C26  1  0.66238730  0.97759082  0.35712605  1
  C  C27  1  0.31521803  0.33764952  0.35711464  1
  C  C28  1  0.97757931  0.66236887  0.85713563  1
  C  C29  1  0.97758291  0.31519648  0.64287061  1
  C  C30  1  0.33761079  0.02241166  0.64286159  1
  C  C31  1  0.66234271  0.68477974  0.14288868  1
  C  C32  1  0.02241900  0.68479832  0.35713512  1
  C  C33  1  0.33765043  0.31521748  0.85710336  1
  C  C34  1  0.02241092  0.33761863  0.14288335  1
  C  C35  1  0.31519487  0.97758915  0.14285988  1
