# generated using pymatgen
data_NaOsSe2
_symmetry_space_group_name_H-M   'P 1'
_cell_length_a   3.80309615
_cell_length_b   6.97826206
_cell_length_c   6.84485218
_cell_angle_alpha   108.87055999
_cell_angle_beta   90.00101854
_cell_angle_gamma   90.00093746
_symmetry_Int_Tables_number   1
_chemical_formula_structural   NaOsSe2
_chemical_formula_sum   'Na2 Os2 Se4'
_cell_volume   171.89186079
_cell_formula_units_Z   2
loop_
 _symmetry_equiv_pos_site_id
 _symmetry_equiv_pos_as_xyz
  1  'x, y, z'
loop_
 _atom_site_type_symbol
 _atom_site_label
 _atom_site_symmetry_multiplicity
 _atom_site_fract_x
 _atom_site_fract_y
 _atom_site_fract_z
 _atom_site_occupancy
  Na  Na0  1  0.50000103  0.51111325  0.72728391  1
  Na  Na1  1  0.49999902  0.48894749  0.27277051  1
  Os  Os2  1  -0.00000002  -0.00016866  -0.00015537  1
  Os  Os3  1  0.50000000  0.00001222  0.50008534  1
  Se  Se4  1  -0.00000028  0.18783152  0.39305107  1
  Se  Se5  1  0.49999963  0.17675889  0.88634860  1
  Se  Se6  1  0.50000031  0.82358769  0.11380668  1
  Se  Se7  1  0.00000032  0.81191760  0.60680926  1
