# generated using pymatgen
data_NaSmI4
_symmetry_space_group_name_H-M   'P 1'
_cell_length_a   7.61682376
_cell_length_b   7.80760552
_cell_length_c   7.63508273
_cell_angle_alpha   82.30309759
_cell_angle_beta   89.99999665
_cell_angle_gamma   89.99995840
_symmetry_Int_Tables_number   1
_chemical_formula_structural   NaSmI4
_chemical_formula_sum   'Na2 Sm2 I8'
_cell_volume   449.96111296
_cell_formula_units_Z   2
loop_
 _symmetry_equiv_pos_site_id
 _symmetry_equiv_pos_as_xyz
  1  'x, y, z'
loop_
 _atom_site_type_symbol
 _atom_site_label
 _atom_site_symmetry_multiplicity
 _atom_site_fract_x
 _atom_site_fract_y
 _atom_site_fract_z
 _atom_site_occupancy
  Na  Na0  1  0.67941443  0.00000015  0.74999904  1
  Na  Na1  1  0.32058556  -0.00000015  0.25000096  1
  Sm  Sm2  1  0.23969942  0.50000000  0.75000015  1
  Sm  Sm3  1  0.76030058  0.50000000  0.24999985  1
  I  I4  1  0.44107084  0.72230226  0.03195583  1
  I  I5  1  0.94425347  0.72822007  0.91739555  1
  I  I6  1  0.94425356  0.27178005  0.58260446  1
  I  I7  1  0.44107090  0.27769792  0.46804420  1
  I  I8  1  0.55892911  0.72230208  0.53195579  1
  I  I9  1  0.05574644  0.72821994  0.41739554  1
  I  I10  1  0.05574653  0.27177993  0.08260445  1
  I  I11  1  0.55892915  0.27769774  0.96804417  1
