# generated using pymatgen
data_NaTbCl4
_symmetry_space_group_name_H-M   'P 1'
_cell_length_a   6.94317939
_cell_length_b   6.54902632
_cell_length_c   6.65709521
_cell_angle_alpha   90.00000094
_cell_angle_beta   90.00000069
_cell_angle_gamma   96.85020046
_symmetry_Int_Tables_number   1
_chemical_formula_structural   NaTbCl4
_chemical_formula_sum   'Na2 Tb2 Cl8'
_cell_volume   300.54431044
_cell_formula_units_Z   2
loop_
 _symmetry_equiv_pos_site_id
 _symmetry_equiv_pos_as_xyz
  1  'x, y, z'
loop_
 _atom_site_type_symbol
 _atom_site_label
 _atom_site_symmetry_multiplicity
 _atom_site_fract_x
 _atom_site_fract_y
 _atom_site_fract_z
 _atom_site_occupancy
  Na  Na0  1  0.50000000  0.24999999  0.68608146  1
  Na  Na1  1  0.50000000  0.75000001  0.31391856  1
  Tb  Tb2  1  -0.00000001  0.74999999  0.75906642  1
  Tb  Tb3  1  0.00000001  0.24999999  0.24093359  1
  Cl  Cl4  1  0.77615461  0.01190613  0.55937923  1
  Cl  Cl5  1  0.22384541  0.48809390  0.55937923  1
  Cl  Cl6  1  0.22384541  0.98809389  0.44062075  1
  Cl  Cl7  1  0.77615460  0.51190613  0.44062077  1
  Cl  Cl8  1  0.21926016  0.57584920  0.06064273  1
  Cl  Cl9  1  0.78073984  0.92415080  0.06064274  1
  Cl  Cl10  1  0.78073983  0.42415079  0.93935728  1
  Cl  Cl11  1  0.21926014  0.07584919  0.93935725  1
