# generated using pymatgen
data_NaTiTe2
_symmetry_space_group_name_H-M   'P 1'
_cell_length_a   3.96162015
_cell_length_b   8.70913542
_cell_length_c   6.88386305
_cell_angle_alpha   66.88878483
_cell_angle_beta   89.99743711
_cell_angle_gamma   76.85115251
_symmetry_Int_Tables_number   1
_chemical_formula_structural   NaTiTe2
_chemical_formula_sum   'Na2 Ti2 Te4'
_cell_volume   211.66176449
_cell_formula_units_Z   2
loop_
 _symmetry_equiv_pos_site_id
 _symmetry_equiv_pos_as_xyz
  1  'x, y, z'
loop_
 _atom_site_type_symbol
 _atom_site_label
 _atom_site_symmetry_multiplicity
 _atom_site_fract_x
 _atom_site_fract_y
 _atom_site_fract_z
 _atom_site_occupancy
  Na  Na0  1  0.24999908  0.50000112  0.25000043  1
  Na  Na1  1  0.74999948  0.49999888  0.74999956  1
  Ti  Ti2  1  0.49999655  -0.00000000  0.49999998  1
  Ti  Ti3  1  0.99999626  -0.00000000  0.00000001  1
  Te  Te4  1  0.39333470  0.21327407  0.06158586  1
  Te  Te5  1  0.89333449  0.21327443  0.56158620  1
  Te  Te6  1  0.60665921  0.78672594  0.93841414  1
  Te  Te7  1  0.10665923  0.78672557  0.43841382  1
