# generated using pymatgen
data_NaTlCl2
_symmetry_space_group_name_H-M   'P 1'
_cell_length_a   5.55179651
_cell_length_b   5.55179612
_cell_length_c   8.49323588
_cell_angle_alpha   73.82808619
_cell_angle_beta   73.82808448
_cell_angle_gamma   89.86657601
_symmetry_Int_Tables_number   1
_chemical_formula_structural   NaTlCl2
_chemical_formula_sum   'Na2 Tl2 Cl4'
_cell_volume   240.67014053
_cell_formula_units_Z   2
loop_
 _symmetry_equiv_pos_site_id
 _symmetry_equiv_pos_as_xyz
  1  'x, y, z'
loop_
 _atom_site_type_symbol
 _atom_site_label
 _atom_site_symmetry_multiplicity
 _atom_site_fract_x
 _atom_site_fract_y
 _atom_site_fract_z
 _atom_site_occupancy
  Na  Na0  1  0.39896073  0.60103926  0.74999988  1
  Na  Na1  1  0.60103919  0.39896085  0.24999988  1
  Tl  Tl2  1  0.00000002  -0.00000001  -0.00000012  1
  Tl  Tl3  1  0.00000001  -0.00000002  0.49999988  1
  Cl  Cl4  1  0.43683280  0.15355313  0.66050270  1
  Cl  Cl5  1  0.56316725  0.84644686  0.33949708  1
  Cl  Cl6  1  0.15355316  0.43683272  0.16050266  1
  Cl  Cl7  1  0.84644684  0.56316722  0.83949705  1
