# generated using pymatgen
data_NaTl2Br3
_symmetry_space_group_name_H-M   'P 1'
_cell_length_a   10.19065379
_cell_length_b   10.19065530
_cell_length_c   10.19065611
_cell_angle_alpha   109.47195822
_cell_angle_beta   109.47196059
_cell_angle_gamma   109.47194211
_symmetry_Int_Tables_number   1
_chemical_formula_structural   NaTl2Br3
_chemical_formula_sum   'Na4 Tl8 Br12'
_cell_volume   814.65293824
_cell_formula_units_Z   4
loop_
 _symmetry_equiv_pos_site_id
 _symmetry_equiv_pos_as_xyz
  1  'x, y, z'
loop_
 _atom_site_type_symbol
 _atom_site_label
 _atom_site_symmetry_multiplicity
 _atom_site_fract_x
 _atom_site_fract_y
 _atom_site_fract_z
 _atom_site_occupancy
  Na  Na0  1  0.24999995  0.24999994  0.24999996  1
  Na  Na1  1  0.00000008  0.25000002  0.49999994  1
  Na  Na2  1  0.25000001  0.49999993  0.00000013  1
  Na  Na3  1  0.49999990  0.00000010  0.25000002  1
  Tl  Tl4  1  0.50000013  0.00000003  0.92875740  1
  Tl  Tl5  1  0.92875745  0.50000022  0.00000017  1
  Tl  Tl6  1  0.49999987  -0.00000024  0.57124253  1
  Tl  Tl7  1  -0.00000019  0.57124257  0.49999983  1
  Tl  Tl8  1  0.92875972  0.92875976  0.92875973  1
  Tl  Tl9  1  0.57124257  0.49999986  -0.00000025  1
  Tl  Tl10  1  0.57124022  0.57124026  0.57124019  1
  Tl  Tl11  1  0.00000016  0.92875749  0.50000027  1
  Br  Br12  1  0.24999812  0.15394973  0.90394917  1
  Br  Br13  1  0.15394986  0.90394918  0.24999825  1
  Br  Br14  1  0.90394920  0.24999816  0.15394976  1
  Br  Br15  1  0.15395336  0.75000107  0.90395285  1
  Br  Br16  1  0.59604727  0.74999903  0.34604679  1
  Br  Br17  1  0.34605032  0.25000182  0.59605085  1
  Br  Br18  1  0.90395272  0.15395330  0.75000103  1
  Br  Br19  1  0.59605078  0.34605022  0.25000176  1
  Br  Br20  1  0.75000100  0.90395276  0.15395325  1
  Br  Br21  1  0.25000183  0.59605080  0.34605025  1
  Br  Br22  1  0.74999898  0.34604669  0.59604716  1
  Br  Br23  1  0.34604669  0.59604729  0.74999896  1
