# generated using pymatgen
data_Nb2CuSi3
_symmetry_space_group_name_H-M   'P 1'
_cell_length_a   7.89044774
_cell_length_b   7.89037534
_cell_length_c   7.89036338
_cell_angle_alpha   109.47137701
_cell_angle_beta   109.47169158
_cell_angle_gamma   109.47182675
_symmetry_Int_Tables_number   1
_chemical_formula_structural   Nb2CuSi3
_chemical_formula_sum   'Nb8 Cu4 Si12'
_cell_volume   378.15322897
_cell_formula_units_Z   4
loop_
 _symmetry_equiv_pos_site_id
 _symmetry_equiv_pos_as_xyz
  1  'x, y, z'
loop_
 _atom_site_type_symbol
 _atom_site_label
 _atom_site_symmetry_multiplicity
 _atom_site_fract_x
 _atom_site_fract_y
 _atom_site_fract_z
 _atom_site_occupancy
  Nb  Nb0  1  0.91312096  0.49999509  -0.00000124  1
  Nb  Nb1  1  0.58687997  0.50000196  0.00000523  1
  Nb  Nb2  1  0.50000393  0.00000781  0.58688068  1
  Nb  Nb3  1  0.49999545  0.00000164  0.91312101  1
  Nb  Nb4  1  0.58687587  0.58687545  0.58687882  1
  Nb  Nb5  1  0.91312474  0.91312130  0.91312472  1
  Nb  Nb6  1  0.00000432  0.58687761  0.49999838  1
  Nb  Nb7  1  -0.00000464  0.91311969  0.49999187  1
  Cu  Cu8  1  0.49999754  -0.00000351  0.24999828  1
  Cu  Cu9  1  0.24999906  0.49999885  0.00000007  1
  Cu  Cu10  1  0.24999947  0.25000217  0.24999762  1
  Cu  Cu11  1  0.00000305  0.25000195  0.50000345  1
  Si  Si12  1  0.91695485  0.24999835  0.16696149  1
  Si  Si13  1  0.91695319  0.16694817  0.74998861  1
  Si  Si14  1  0.58304490  0.33303904  0.25000130  1
  Si  Si15  1  0.75000282  0.33304628  0.58304099  1
  Si  Si16  1  0.74999831  0.91695974  0.16695448  1
  Si  Si17  1  0.58304594  0.75001066  0.33305182  1
  Si  Si18  1  0.33304179  0.24999903  0.58303955  1
  Si  Si19  1  0.25000195  0.58304162  0.33304552  1
  Si  Si20  1  0.24999902  0.16695521  0.91695894  1
  Si  Si21  1  0.16695829  0.91696092  0.25000092  1
  Si  Si22  1  0.33304485  0.58304248  0.75000050  1
  Si  Si23  1  0.16695436  0.74999850  0.91695699  1
