# generated using pymatgen
data_Nb3AlSi3
_symmetry_space_group_name_H-M   'P 1'
_cell_length_a   6.59200224
_cell_length_b   6.70218845
_cell_length_c   6.70209660
_cell_angle_alpha   109.80167428
_cell_angle_beta   109.13733653
_cell_angle_gamma   109.13686659
_symmetry_Int_Tables_number   1
_chemical_formula_structural   Nb3AlSi3
_chemical_formula_sum   'Nb6 Al2 Si6'
_cell_volume   228.87873729
_cell_formula_units_Z   2
loop_
 _symmetry_equiv_pos_site_id
 _symmetry_equiv_pos_as_xyz
  1  'x, y, z'
loop_
 _atom_site_type_symbol
 _atom_site_label
 _atom_site_symmetry_multiplicity
 _atom_site_fract_x
 _atom_site_fract_y
 _atom_site_fract_z
 _atom_site_occupancy
  Nb  Nb0  1  0.49499376  0.00564759  0.65421118  1
  Nb  Nb1  1  0.34078370  0.35143794  0.34579070  1
  Nb  Nb2  1  0.48934776  -0.00564685  0.14856433  1
  Nb  Nb3  1  -0.01065305  0.64856194  0.49435209  1
  Nb  Nb4  1  0.84078746  0.84578915  0.85143644  1
  Nb  Nb5  1  -0.00500072  0.15421083  0.50564823  1
  Al  Al6  1  0.17665217  0.49999637  -0.00000378  1
  Al  Al7  1  0.67665571  0.50000298  -0.00000035  1
  Si  Si8  1  0.37477459  0.62224621  0.75385575  1
  Si  Si9  1  0.87477054  0.25385570  0.12224499  1
  Si  Si10  1  0.62091596  0.74614505  0.36839111  1
  Si  Si11  1  0.12091684  0.86838956  0.24614531  1
  Si  Si12  1  0.25252657  0.13161079  0.87775373  1
  Si  Si13  1  0.75252870  0.37775274  0.63161028  1
