# generated using pymatgen
data_NbAs2H
_symmetry_space_group_name_H-M   'P 1'
_cell_length_a   6.14232838
_cell_length_b   5.12460670
_cell_length_c   5.12493804
_cell_angle_alpha   89.13245469
_cell_angle_beta   110.99051961
_cell_angle_gamma   110.98957345
_symmetry_Int_Tables_number   1
_chemical_formula_structural   NbAs2H
_chemical_formula_sum   'Nb2 As4 H2'
_cell_volume   139.42871860
_cell_formula_units_Z   2
loop_
 _symmetry_equiv_pos_site_id
 _symmetry_equiv_pos_as_xyz
  1  'x, y, z'
loop_
 _atom_site_type_symbol
 _atom_site_label
 _atom_site_symmetry_multiplicity
 _atom_site_fract_x
 _atom_site_fract_y
 _atom_site_fract_z
 _atom_site_occupancy
  Nb  Nb0  1  0.74999230  0.88814314  0.11185550  1
  Nb  Nb1  1  0.25000767  0.11185456  0.88814661  1
  As  As2  1  0.73641682  0.36575291  0.20943083  1
  As  As3  1  0.76358606  0.79051246  0.63424732  1
  As  As4  1  0.26360516  0.63424940  0.79057308  1
  As  As5  1  0.23639196  0.20948433  0.36575049  1
  H  H6  1  0.74999747  0.44589841  0.55414712  1
  H  H7  1  0.25000256  0.55410481  0.44584903  1
