# generated using pymatgen
data_NbHS
_symmetry_space_group_name_H-M   'P 1'
_cell_length_a   4.00537228
_cell_length_b   4.00537200
_cell_length_c   4.00537307
_cell_angle_alpha   59.99999020
_cell_angle_beta   59.99999331
_cell_angle_gamma   59.99999217
_symmetry_Int_Tables_number   1
_chemical_formula_structural   NbHS
_chemical_formula_sum   'Nb1 H1 S1'
_cell_volume   45.43741771
_cell_formula_units_Z   1
loop_
 _symmetry_equiv_pos_site_id
 _symmetry_equiv_pos_as_xyz
  1  'x, y, z'
loop_
 _atom_site_type_symbol
 _atom_site_label
 _atom_site_symmetry_multiplicity
 _atom_site_fract_x
 _atom_site_fract_y
 _atom_site_fract_z
 _atom_site_occupancy
  Nb  Nb0  1  0.25000007  0.25000004  0.24999992  1
  H  H1  1  0.00000003  -0.00000002  -0.00000002  1
  S  S2  1  0.49999990  0.49999998  0.50000010  1
