# generated using pymatgen
data_NbOF
_symmetry_space_group_name_H-M   'P 1'
_cell_length_a   3.67763714
_cell_length_b   3.67763653
_cell_length_c   3.67763761
_cell_angle_alpha   59.99992991
_cell_angle_beta   59.99993971
_cell_angle_gamma   59.99995894
_symmetry_Int_Tables_number   1
_chemical_formula_structural   NbOF
_chemical_formula_sum   'Nb1 O1 F1'
_cell_volume   35.17151306
_cell_formula_units_Z   1
loop_
 _symmetry_equiv_pos_site_id
 _symmetry_equiv_pos_as_xyz
  1  'x, y, z'
loop_
 _atom_site_type_symbol
 _atom_site_label
 _atom_site_symmetry_multiplicity
 _atom_site_fract_x
 _atom_site_fract_y
 _atom_site_fract_z
 _atom_site_occupancy
  Nb  Nb0  1  0.74999961  0.74999992  0.75000006  1
  O  O1  1  0.50000046  0.49999990  0.49999972  1
  F  F2  1  -0.00000006  0.00000018  0.00000021  1
