# generated using pymatgen
data_NbRuN2
_symmetry_space_group_name_H-M   'P 1'
_cell_length_a   4.47249226
_cell_length_b   4.47163607
_cell_length_c   5.33052148
_cell_angle_alpha   120.54875907
_cell_angle_beta   110.23234947
_cell_angle_gamma   88.95500524
_symmetry_Int_Tables_number   1
_chemical_formula_structural   NbRuN2
_chemical_formula_sum   'Nb2 Ru2 N4'
_cell_volume   84.49181476
_cell_formula_units_Z   2
loop_
 _symmetry_equiv_pos_site_id
 _symmetry_equiv_pos_as_xyz
  1  'x, y, z'
loop_
 _atom_site_type_symbol
 _atom_site_label
 _atom_site_symmetry_multiplicity
 _atom_site_fract_x
 _atom_site_fract_y
 _atom_site_fract_z
 _atom_site_occupancy
  Nb  Nb0  1  0.67655436  0.42653727  0.75002555  1
  Nb  Nb1  1  0.32344805  0.57346534  0.24997431  1
  Ru  Ru2  1  0.86735533  0.11731947  0.25001832  1
  Ru  Ru3  1  0.13264942  0.88268539  0.74998177  1
  N  N4  1  0.64111652  0.90325689  0.75000066  1
  N  N5  1  0.15330156  0.39124440  0.75000769  1
  N  N6  1  0.35887245  0.09674713  0.24999925  1
  N  N7  1  0.84670231  0.60874511  0.24999246  1
