# generated using pymatgen
data_NbSi2As
_symmetry_space_group_name_H-M   'P 1'
_cell_length_a   3.71986542
_cell_length_b   5.37522379
_cell_length_c   7.33615730
_cell_angle_alpha   78.12943821
_cell_angle_beta   90.00035980
_cell_angle_gamma   89.99909347
_symmetry_Int_Tables_number   1
_chemical_formula_structural   NbSi2As
_chemical_formula_sum   'Nb2 Si4 As2'
_cell_volume   143.55032953
_cell_formula_units_Z   2
loop_
 _symmetry_equiv_pos_site_id
 _symmetry_equiv_pos_as_xyz
  1  'x, y, z'
loop_
 _atom_site_type_symbol
 _atom_site_label
 _atom_site_symmetry_multiplicity
 _atom_site_fract_x
 _atom_site_fract_y
 _atom_site_fract_z
 _atom_site_occupancy
  Nb  Nb0  1  0.50000359  0.73464761  0.82946062  1
  Nb  Nb1  1  0.49999634  0.26533925  0.17054277  1
  Si  Si2  1  0.00001549  0.44746649  0.35477323  1
  Si  Si3  1  0.50001081  0.26696386  0.79110554  1
  Si  Si4  1  0.49998924  0.73303415  0.20888862  1
  Si  Si5  1  -0.00001547  0.55253854  0.64522462  1
  As  As6  1  -0.00000002  0.00000058  -0.00000348  1
  As  As7  1  0.50000003  0.00000951  0.50000808  1
