# generated using pymatgen
data_NbTlC2
_symmetry_space_group_name_H-M   'P 1'
_cell_length_a   7.82248628
_cell_length_b   7.82252703
_cell_length_c   7.82248838
_cell_angle_alpha   106.34656174
_cell_angle_beta   106.34824675
_cell_angle_gamma   106.34790222
_symmetry_Int_Tables_number   1
_chemical_formula_structural   NbTlC2
_chemical_formula_sum   'Nb6 Tl6 C12'
_cell_volume   405.52724874
_cell_formula_units_Z   6
loop_
 _symmetry_equiv_pos_site_id
 _symmetry_equiv_pos_as_xyz
  1  'x, y, z'
loop_
 _atom_site_type_symbol
 _atom_site_label
 _atom_site_symmetry_multiplicity
 _atom_site_fract_x
 _atom_site_fract_y
 _atom_site_fract_z
 _atom_site_occupancy
  Nb  Nb0  1  0.57075733  0.18042068  0.45548225  1
  Nb  Nb1  1  0.18042258  0.45548516  0.57076074  1
  Nb  Nb2  1  0.45547926  0.57075785  0.18040897  1
  Nb  Nb3  1  0.42923976  0.81958091  0.54451721  1
  Nb  Nb4  1  0.81958106  0.54451581  0.42924074  1
  Nb  Nb5  1  0.54452310  0.42924493  0.81959205  1
  Tl  Tl6  1  0.15148314  0.01692894  0.69387627  1
  Tl  Tl7  1  0.84851850  0.98307207  0.30612581  1
  Tl  Tl8  1  0.98307518  0.30612608  0.84852058  1
  Tl  Tl9  1  0.30612427  0.84852347  0.98307265  1
  Tl  Tl10  1  0.01692607  0.69387518  0.15148070  1
  Tl  Tl11  1  0.69387645  0.15147619  0.01692897  1
  C  C12  1  0.68798717  0.50788098  0.12625738  1
  C  C13  1  0.12623969  0.68796683  0.50787891  1
  C  C14  1  0.49211647  0.87373381  0.31201470  1
  C  C15  1  0.50788483  0.12626989  0.68798694  1
  C  C16  1  0.31201256  0.49211710  0.87374208  1
  C  C17  1  0.87376139  0.31203591  0.49212131  1
  C  C18  1  0.56413411  0.66229578  0.69580535  1
  C  C19  1  0.69581026  0.56413452  0.66230566  1
  C  C20  1  0.66230243  0.69580966  0.56413760  1
  C  C21  1  0.43586543  0.33770168  0.30418887  1
  C  C22  1  0.30418507  0.43586407  0.33769102  1
  C  C23  1  0.33769391  0.30418248  0.43586323  1
