# generated using pymatgen
data_NdAs2Au
_symmetry_space_group_name_H-M   'P 1'
_cell_length_a   5.61979268
_cell_length_b   6.01667083
_cell_length_c   6.01671521
_cell_angle_alpha   113.80733189
_cell_angle_beta   98.97269176
_cell_angle_gamma   98.97364658
_symmetry_Int_Tables_number   1
_chemical_formula_structural   NdAs2Au
_chemical_formula_sum   'Nd2 As4 Au2'
_cell_volume   178.37419124
_cell_formula_units_Z   2
loop_
 _symmetry_equiv_pos_site_id
 _symmetry_equiv_pos_as_xyz
  1  'x, y, z'
loop_
 _atom_site_type_symbol
 _atom_site_label
 _atom_site_symmetry_multiplicity
 _atom_site_fract_x
 _atom_site_fract_y
 _atom_site_fract_z
 _atom_site_occupancy
  Nd  Nd0  1  0.74999960  0.84754273  0.15244744  1
  Nd  Nd1  1  0.25000040  0.15245730  0.84755260  1
  As  As2  1  0.80952834  0.35841975  0.15459637  1
  As  As3  1  0.69046426  0.84537768  0.64156135  1
  As  As4  1  0.19047167  0.64158024  0.84540355  1
  As  As5  1  0.30953575  0.15462225  0.35843865  1
  Au  Au6  1  0.75001188  0.34201818  0.65796933  1
  Au  Au7  1  0.24998811  0.65798186  0.34203071  1
