# generated using pymatgen
data_NdAuSe2
_symmetry_space_group_name_H-M   'P 1'
_cell_length_a   4.56204948
_cell_length_b   4.56205079
_cell_length_c   13.32594778
_cell_angle_alpha   89.99962714
_cell_angle_beta   90.00034028
_cell_angle_gamma   119.99967874
_symmetry_Int_Tables_number   1
_chemical_formula_structural   NdAuSe2
_chemical_formula_sum   'Nd2 Au2 Se4'
_cell_volume   240.18741703
_cell_formula_units_Z   2
loop_
 _symmetry_equiv_pos_site_id
 _symmetry_equiv_pos_as_xyz
  1  'x, y, z'
loop_
 _atom_site_type_symbol
 _atom_site_label
 _atom_site_symmetry_multiplicity
 _atom_site_fract_x
 _atom_site_fract_y
 _atom_site_fract_z
 _atom_site_occupancy
  Nd  Nd0  1  0.66666820  0.33333161  0.67618984  1
  Nd  Nd1  1  0.33333232  0.66666861  0.32380983  1
  Au  Au2  1  -0.00000188  0.00000202  0.13936215  1
  Au  Au3  1  0.00000188  -0.00000211  0.86063814  1
  Se  Se4  1  0.33333531  0.66666433  0.11318837  1
  Se  Se5  1  0.66666469  0.33333585  0.88681190  1
  Se  Se6  1  0.33333273  0.66666669  0.59755553  1
  Se  Se7  1  0.66666675  0.33333300  0.40244424  1
