# generated using pymatgen
data_NdCrP2
_symmetry_space_group_name_H-M   'P 1'
_cell_length_a   5.79399267
_cell_length_b   5.79399209
_cell_length_c   6.70224846
_cell_angle_alpha   115.45518523
_cell_angle_beta   115.45518816
_cell_angle_gamma   94.43572335
_symmetry_Int_Tables_number   1
_chemical_formula_structural   NdCrP2
_chemical_formula_sum   'Nd2 Cr2 P4'
_cell_volume   173.69681968
_cell_formula_units_Z   2
loop_
 _symmetry_equiv_pos_site_id
 _symmetry_equiv_pos_as_xyz
  1  'x, y, z'
loop_
 _atom_site_type_symbol
 _atom_site_label
 _atom_site_symmetry_multiplicity
 _atom_site_fract_x
 _atom_site_fract_y
 _atom_site_fract_z
 _atom_site_occupancy
  Nd  Nd0  1  0.11798688  0.88201305  0.24999995  1
  Nd  Nd1  1  0.88201450  0.11798559  0.75000005  1
  Cr  Cr2  1  0.31078534  0.68921472  0.75000003  1
  Cr  Cr3  1  0.68921291  0.31078702  0.24999996  1
  P  P4  1  0.12558711  0.40537406  0.29727426  1
  P  P5  1  0.59462591  0.87441296  0.20272580  1
  P  P6  1  0.40536796  0.12558053  0.79726738  1
  P  P7  1  0.87441939  0.59463207  0.70273258  1
