# generated using pymatgen
data_NdHo2N3
_symmetry_space_group_name_H-M   'P 1'
_cell_length_a   7.98164411
_cell_length_b   7.98163594
_cell_length_c   7.98165534
_cell_angle_alpha   109.47444610
_cell_angle_beta   109.46995264
_cell_angle_gamma   109.46925773
_symmetry_Int_Tables_number   1
_chemical_formula_structural   NdHo2N3
_chemical_formula_sum   'Nd4 Ho8 N12'
_cell_volume   391.43114893
_cell_formula_units_Z   4
loop_
 _symmetry_equiv_pos_site_id
 _symmetry_equiv_pos_as_xyz
  1  'x, y, z'
loop_
 _atom_site_type_symbol
 _atom_site_label
 _atom_site_symmetry_multiplicity
 _atom_site_fract_x
 _atom_site_fract_y
 _atom_site_fract_z
 _atom_site_occupancy
  Nd  Nd0  1  0.50000770  0.00000829  0.25000518  1
  Nd  Nd1  1  0.25000069  0.50000218  0.00000218  1
  Nd  Nd2  1  0.25000101  0.25000421  0.24999394  1
  Nd  Nd3  1  -0.00000157  0.24999966  0.49999928  1
  Ho  Ho4  1  0.92985316  0.49997908  -0.00000655  1
  Ho  Ho5  1  0.57015124  0.50001580  0.00002488  1
  Ho  Ho6  1  0.49999571  -0.00002522  0.57012795  1
  Ho  Ho7  1  0.50001040  0.00001391  0.92987089  1
  Ho  Ho8  1  0.57014264  0.57013781  0.57013258  1
  Ho  Ho9  1  0.92984794  0.92986905  0.92986997  1
  Ho  Ho10  1  -0.00000701  0.57012483  0.49997011  1
  Ho  Ho11  1  -0.00000848  0.92986185  0.50000922  1
  N  N12  1  0.91115495  0.24999949  0.16115527  1
  N  N13  1  0.91116283  0.16116300  0.75000089  1
  N  N14  1  0.58883989  0.33883923  0.24999948  1
  N  N15  1  0.75000140  0.33884363  0.58884532  1
  N  N16  1  0.74999990  0.91115409  0.16115430  1
  N  N17  1  0.58884529  0.75000102  0.33884413  1
  N  N18  1  0.33883375  0.24999930  0.58883259  1
  N  N19  1  0.25000083  0.58884773  0.33884634  1
  N  N20  1  0.24999832  0.16115719  0.91115459  1
  N  N21  1  0.16117080  0.91117062  0.25000093  1
  N  N22  1  0.33883174  0.58883104  0.74999930  1
  N  N23  1  0.16116689  0.75000221  0.91116721  1
