# generated using pymatgen
data_NdInP2
_symmetry_space_group_name_H-M   'P 1'
_cell_length_a   3.99925391
_cell_length_b   7.40101960
_cell_length_c   7.30777892
_cell_angle_alpha   116.74867798
_cell_angle_beta   89.99995193
_cell_angle_gamma   90.00010958
_symmetry_Int_Tables_number   1
_chemical_formula_structural   NdInP2
_chemical_formula_sum   'Nd2 In2 P4'
_cell_volume   193.15333062
_cell_formula_units_Z   2
loop_
 _symmetry_equiv_pos_site_id
 _symmetry_equiv_pos_as_xyz
  1  'x, y, z'
loop_
 _atom_site_type_symbol
 _atom_site_label
 _atom_site_symmetry_multiplicity
 _atom_site_fract_x
 _atom_site_fract_y
 _atom_site_fract_z
 _atom_site_occupancy
  Nd  Nd0  1  -0.00000034  0.02285943  0.75616553  1
  Nd  Nd1  1  0.00000024  -0.02285938  0.24383386  1
  In  In2  1  0.49999991  0.49999968  0.00000061  1
  In  In3  1  0.50000045  0.50000089  0.50000132  1
  P  P4  1  0.50000053  0.16949971  0.56947202  1
  P  P5  1  0.00000014  0.65272806  0.82297389  1
  P  P6  1  -0.00000029  0.34727187  0.17702568  1
  P  P7  1  0.49999936  0.83049974  0.43052709  1
