# generated using pymatgen
data_NdLuAs2
_symmetry_space_group_name_H-M   'P 1'
_cell_length_a   4.11598485
_cell_length_b   4.11598656
_cell_length_c   7.15916742
_cell_angle_alpha   89.99999656
_cell_angle_beta   90.00001160
_cell_angle_gamma   119.99996095
_symmetry_Int_Tables_number   1
_chemical_formula_structural   NdLuAs2
_chemical_formula_sum   'Nd1 Lu1 As2'
_cell_volume   105.03669225
_cell_formula_units_Z   1
loop_
 _symmetry_equiv_pos_site_id
 _symmetry_equiv_pos_as_xyz
  1  'x, y, z'
loop_
 _atom_site_type_symbol
 _atom_site_label
 _atom_site_symmetry_multiplicity
 _atom_site_fract_x
 _atom_site_fract_y
 _atom_site_fract_z
 _atom_site_occupancy
  Nd  Nd0  1  0.00000003  0.00000003  0.50000000  1
  Lu  Lu1  1  -0.00000002  -0.00000004  -0.00000000  1
  As  As2  1  0.33333341  0.66666647  0.23503031  1
  As  As3  1  0.66666657  0.33333354  0.76496970  1
