# generated using pymatgen
data_NdTlTe2
_symmetry_space_group_name_H-M   'P 1'
_cell_length_a   4.57471316
_cell_length_b   7.80415707
_cell_length_c   11.20955277
_cell_angle_alpha   48.14386040
_cell_angle_beta   89.99999773
_cell_angle_gamma   90.00000478
_symmetry_Int_Tables_number   1
_chemical_formula_structural   NdTlTe2
_chemical_formula_sum   'Nd2 Tl2 Te4'
_cell_volume   298.07872375
_cell_formula_units_Z   2
loop_
 _symmetry_equiv_pos_site_id
 _symmetry_equiv_pos_as_xyz
  1  'x, y, z'
loop_
 _atom_site_type_symbol
 _atom_site_label
 _atom_site_symmetry_multiplicity
 _atom_site_fract_x
 _atom_site_fract_y
 _atom_site_fract_z
 _atom_site_occupancy
  Nd  Nd0  1  0.50000015  0.50000001  0.00000009  1
  Nd  Nd1  1  -0.00000056  0.00000003  -0.00000009  1
  Tl  Tl2  1  0.50000058  -0.00000041  0.50000015  1
  Tl  Tl3  1  0.00000040  0.50000024  0.49999993  1
  Te  Te4  1  0.00000014  0.45328958  0.21762730  1
  Te  Te5  1  0.00000023  0.54671034  0.78237290  1
  Te  Te6  1  0.49999955  -0.04662639  0.21745677  1
  Te  Te7  1  0.49999951  0.04662660  0.78254295  1
