# generated using pymatgen
data_NdV2N3
_symmetry_space_group_name_H-M   'P 1'
_cell_length_a   7.09807432
_cell_length_b   7.09806040
_cell_length_c   7.09809411
_cell_angle_alpha   109.47219045
_cell_angle_beta   109.47136977
_cell_angle_gamma   109.47105785
_symmetry_Int_Tables_number   1
_chemical_formula_structural   NdV2N3
_chemical_formula_sum   'Nd4 V8 N12'
_cell_volume   275.29287449
_cell_formula_units_Z   4
loop_
 _symmetry_equiv_pos_site_id
 _symmetry_equiv_pos_as_xyz
  1  'x, y, z'
loop_
 _atom_site_type_symbol
 _atom_site_label
 _atom_site_symmetry_multiplicity
 _atom_site_fract_x
 _atom_site_fract_y
 _atom_site_fract_z
 _atom_site_occupancy
  Nd  Nd0  1  0.25000172  0.25000019  0.24999973  1
  Nd  Nd1  1  0.00000238  0.24999940  0.49999910  1
  Nd  Nd2  1  0.24999749  0.49999934  0.00000065  1
  Nd  Nd3  1  0.50000134  0.00000156  0.25000194  1
  V  V4  1  0.50000021  0.00000289  0.89496187  1
  V  V5  1  0.89495596  0.50000165  -0.00000080  1
  V  V6  1  0.50000231  0.00000042  0.60504417  1
  V  V7  1  -0.00000440  0.60503386  0.49999411  1
  V  V8  1  0.89496118  0.89495871  0.89495892  1
  V  V9  1  0.60503684  0.50000273  -0.00000237  1
  V  V10  1  0.60504432  0.60504151  0.60504307  1
  V  V11  1  -0.00000216  0.89495378  0.49999758  1
  N  N12  1  0.24999751  0.10370255  0.85370129  1
  N  N13  1  0.10370339  0.85370429  0.24999939  1
  N  N14  1  0.85370611  0.25000652  0.10370848  1
  N  N15  1  0.10370359  0.74999724  0.85370352  1
  N  N16  1  0.64629418  0.74999945  0.39629425  1
  N  N17  1  0.39629839  0.25000103  0.64629555  1
  N  N18  1  0.85370433  0.10370531  0.75000052  1
  N  N19  1  0.64629365  0.39629492  0.24999834  1
  N  N20  1  0.75000306  0.85370630  0.10370762  1
  N  N21  1  0.25000066  0.64629840  0.39629602  1
  N  N22  1  0.74999955  0.39629284  0.64629482  1
  N  N23  1  0.39629840  0.64629509  0.75000224  1
