# generated using pymatgen
data_NiAs2W
_symmetry_space_group_name_H-M   'P 1'
_cell_length_a   3.50142779
_cell_length_b   3.50142777
_cell_length_c   5.82773653
_cell_angle_alpha   90.00001439
_cell_angle_beta   89.99998340
_cell_angle_gamma   120.00002175
_symmetry_Int_Tables_number   1
_chemical_formula_structural   NiAs2W
_chemical_formula_sum   'Ni1 As2 W1'
_cell_volume   61.87579492
_cell_formula_units_Z   1
loop_
 _symmetry_equiv_pos_site_id
 _symmetry_equiv_pos_as_xyz
  1  'x, y, z'
loop_
 _atom_site_type_symbol
 _atom_site_label
 _atom_site_symmetry_multiplicity
 _atom_site_fract_x
 _atom_site_fract_y
 _atom_site_fract_z
 _atom_site_occupancy
  Ni  Ni0  1  -0.00000000  -0.00000001  0.00000000  1
  As  As1  1  0.33333335  0.66666663  0.22437002  1
  As  As2  1  0.66666664  0.33333335  0.77562998  1
  W  W3  1  0.00000001  0.00000003  0.50000000  1
