# generated using pymatgen
data_NiMoC2
_symmetry_space_group_name_H-M   'P 1'
_cell_length_a   2.90605838
_cell_length_b   2.90606059
_cell_length_c   5.17452789
_cell_angle_alpha   90.00001856
_cell_angle_beta   90.00000342
_cell_angle_gamma   119.99998603
_symmetry_Int_Tables_number   1
_chemical_formula_structural   NiMoC2
_chemical_formula_sum   'Ni1 Mo1 C2'
_cell_volume   37.84516686
_cell_formula_units_Z   1
loop_
 _symmetry_equiv_pos_site_id
 _symmetry_equiv_pos_as_xyz
  1  'x, y, z'
loop_
 _atom_site_type_symbol
 _atom_site_label
 _atom_site_symmetry_multiplicity
 _atom_site_fract_x
 _atom_site_fract_y
 _atom_site_fract_z
 _atom_site_occupancy
  Ni  Ni0  1  -0.00000000  -0.00000000  0.50000010  1
  Mo  Mo1  1  0.00000000  0.00000001  0.00000008  1
  C  C2  1  0.33333324  0.66666663  0.27077331  1
  C  C3  1  0.66666676  0.33333337  0.72922651  1
