# generated using pymatgen
data_P2WAu
_symmetry_space_group_name_H-M   'P 1'
_cell_length_a   3.93216962
_cell_length_b   5.18727437
_cell_length_c   6.97363455
_cell_angle_alpha   89.69361777
_cell_angle_beta   89.99976230
_cell_angle_gamma   89.99988371
_symmetry_Int_Tables_number   1
_chemical_formula_structural   P2WAu
_chemical_formula_sum   'P4 W2 Au2'
_cell_volume   142.24088275
_cell_formula_units_Z   2
loop_
 _symmetry_equiv_pos_site_id
 _symmetry_equiv_pos_as_xyz
  1  'x, y, z'
loop_
 _atom_site_type_symbol
 _atom_site_label
 _atom_site_symmetry_multiplicity
 _atom_site_fract_x
 _atom_site_fract_y
 _atom_site_fract_z
 _atom_site_occupancy
  P  P0  1  0.49999945  0.21138832  0.15991359  1
  P  P1  1  0.00000079  0.36743984  0.62920497  1
  P  P2  1  -0.00000075  0.63256522  0.37080617  1
  P  P3  1  0.50000057  0.78860031  0.84007946  1
  W  W4  1  0.50000028  0.66305654  0.17605580  1
  W  W5  1  0.49999975  0.33693588  0.82394764  1
  Au  Au6  1  0.00000001  -0.00000332  -0.00000309  1
  Au  Au7  1  0.49999989  0.00001721  0.49999546  1
