# generated using pymatgen
data_PH2N
_symmetry_space_group_name_H-M   'P 1'
_cell_length_a   9.15102226
_cell_length_b   9.15098939
_cell_length_c   9.15100518
_cell_angle_alpha   117.06802800
_cell_angle_beta   117.06863987
_cell_angle_gamma   117.06800619
_symmetry_Int_Tables_number   1
_chemical_formula_structural   PH2N
_chemical_formula_sum   'P6 H12 N6'
_cell_volume   334.31746346
_cell_formula_units_Z   6
loop_
 _symmetry_equiv_pos_site_id
 _symmetry_equiv_pos_as_xyz
  1  'x, y, z'
loop_
 _atom_site_type_symbol
 _atom_site_label
 _atom_site_symmetry_multiplicity
 _atom_site_fract_x
 _atom_site_fract_y
 _atom_site_fract_z
 _atom_site_occupancy
  P  P0  1  0.51957886  0.30360157  0.91783315  1
  P  P1  1  0.48042389  0.69640280  0.08217334  1
  P  P2  1  0.69640081  0.08216868  0.48042826  1
  P  P3  1  0.08216843  0.48042220  0.69639870  1
  P  P4  1  0.30359614  0.91782656  0.51957483  1
  P  P5  1  0.91782441  0.51957360  0.30359714  1
  H  H6  1  0.63392411  0.66871666  -0.05179336  1
  H  H7  1  -0.05179585  0.63392191  0.66870494  1
  H  H8  1  0.33128707  0.05178985  0.36607441  1
  H  H9  1  0.66871046  -0.05179958  0.63391805  1
  H  H10  1  0.36607950  0.33129605  0.05180017  1
  H  H11  1  0.05179980  0.36607892  0.33128706  1
  H  H12  1  0.69958008  0.92240127  0.05221739  1
  H  H13  1  0.05220966  0.69957774  0.92239325  1
  H  H14  1  0.92239056  0.05220293  0.69956719  1
  H  H15  1  0.30042981  0.07761048  -0.05220365  1
  H  H16  1  -0.05220803  0.30043051  0.07760151  1
  H  H17  1  0.07760222  -0.05222156  0.30041663  1
  N  N18  1  0.16550865  -0.09278342  0.30178881  1
  N  N19  1  -0.09277425  0.30178834  0.16551143  1
  N  N20  1  0.30179689  0.16552763  -0.09275940  1
  N  N21  1  0.83447555  0.09275805  0.69820313  1
  N  N22  1  0.09277461  0.69821228  0.83448178  1
  N  N23  1  0.69821663  0.83449655  0.09278525  1
