# generated using pymatgen
data_Pr3Te3N
_symmetry_space_group_name_H-M   'P 1'
_cell_length_a   8.89171462
_cell_length_b   8.12796947
_cell_length_c   8.12725002
_cell_angle_alpha   107.49563590
_cell_angle_beta   111.39002060
_cell_angle_gamma   111.38621558
_symmetry_Int_Tables_number   1
_chemical_formula_structural   Pr3Te3N
_chemical_formula_sum   'Pr6 Te6 N2'
_cell_volume   440.98342358
_cell_formula_units_Z   2
loop_
 _symmetry_equiv_pos_site_id
 _symmetry_equiv_pos_as_xyz
  1  'x, y, z'
loop_
 _atom_site_type_symbol
 _atom_site_label
 _atom_site_symmetry_multiplicity
 _atom_site_fract_x
 _atom_site_fract_y
 _atom_site_fract_z
 _atom_site_occupancy
  Pr  Pr0  1  0.57112952  0.16732607  0.77516808  1
  Pr  Pr1  1  0.29632317  0.39195229  0.22479437  1
  Pr  Pr2  1  0.40432456  -0.16716144  0.10802471  1
  Pr  Pr3  1  -0.09617779  0.60782432  0.33269873  1
  Pr  Pr4  1  0.79595311  0.72488662  0.89215340  1
  Pr  Pr5  1  0.07152868  0.27520530  0.66718290  1
  Te  Te6  1  0.35896848  0.64826131  0.66706542  1
  Te  Te7  1  0.85937353  0.16751801  0.14835341  1
  Te  Te8  1  0.69193561  0.83290596  0.48115393  1
  Te  Te9  1  0.19185815  0.98085412  0.33249743  1
  Te  Te10  1  0.21075677  0.01885294  0.85174523  1
  Te  Te11  1  0.71106163  0.35166105  0.51919051  1
  N  N12  1  0.21694376  0.49995286  -0.00006485  1
  N  N13  1  0.71601884  0.49996059  0.00003673  1
