# generated using pymatgen
data_PrAgS2
_symmetry_space_group_name_H-M   'P 1'
_cell_length_a   4.06904208
_cell_length_b   4.06904173
_cell_length_c   6.59414292
_cell_angle_alpha   90.00001817
_cell_angle_beta   89.99998664
_cell_angle_gamma   120.00000003
_symmetry_Int_Tables_number   1
_chemical_formula_structural   PrAgS2
_chemical_formula_sum   'Pr1 Ag1 S2'
_cell_volume   94.55256440
_cell_formula_units_Z   1
loop_
 _symmetry_equiv_pos_site_id
 _symmetry_equiv_pos_as_xyz
  1  'x, y, z'
loop_
 _atom_site_type_symbol
 _atom_site_label
 _atom_site_symmetry_multiplicity
 _atom_site_fract_x
 _atom_site_fract_y
 _atom_site_fract_z
 _atom_site_occupancy
  Pr  Pr0  1  -0.00000012  -0.00000001  0.50000002  1
  Ag  Ag1  1  0.00000010  0.00000001  -0.00000001  1
  S  S2  1  0.33333335  0.66666658  0.24886870  1
  S  S3  1  0.66666667  0.33333342  0.75113128  1
