# generated using pymatgen
data_PrInN2
_symmetry_space_group_name_H-M   'P 1'
_cell_length_a   3.94412864
_cell_length_b   3.93632620
_cell_length_c   11.88768690
_cell_angle_alpha   71.32315311
_cell_angle_beta   71.17397435
_cell_angle_gamma   59.93457852
_symmetry_Int_Tables_number   1
_chemical_formula_structural   PrInN2
_chemical_formula_sum   'Pr2 In2 N4'
_cell_volume   148.32442784
_cell_formula_units_Z   2
loop_
 _symmetry_equiv_pos_site_id
 _symmetry_equiv_pos_as_xyz
  1  'x, y, z'
loop_
 _atom_site_type_symbol
 _atom_site_label
 _atom_site_symmetry_multiplicity
 _atom_site_fract_x
 _atom_site_fract_y
 _atom_site_fract_z
 _atom_site_occupancy
  Pr  Pr0  1  0.41853537  0.41744811  0.87061497  1
  Pr  Pr1  1  0.58173459  0.58281315  0.12976823  1
  In  In2  1  0.26475211  0.26730683  0.60297687  1
  In  In3  1  0.73459455  0.73208210  0.39697443  1
  N  N4  1  0.26881928  0.27086189  0.09835125  1
  N  N5  1  0.73178866  0.72964073  0.90166084  1
  N  N6  1  0.59502102  0.59645141  0.60799319  1
  N  N7  1  0.40481508  0.40339578  0.39166021  1
