# generated using pymatgen
data_PrScN2
_symmetry_space_group_name_H-M   'P 1'
_cell_length_a   3.39216415
_cell_length_b   3.39216199
_cell_length_c   5.98833783
_cell_angle_alpha   89.99997451
_cell_angle_beta   90.00004195
_cell_angle_gamma   119.99999407
_symmetry_Int_Tables_number   1
_chemical_formula_structural   PrScN2
_chemical_formula_sum   'Pr1 Sc1 N2'
_cell_volume   59.67472062
_cell_formula_units_Z   1
loop_
 _symmetry_equiv_pos_site_id
 _symmetry_equiv_pos_as_xyz
  1  'x, y, z'
loop_
 _atom_site_type_symbol
 _atom_site_label
 _atom_site_symmetry_multiplicity
 _atom_site_fract_x
 _atom_site_fract_y
 _atom_site_fract_z
 _atom_site_occupancy
  Pr  Pr0  1  0.00000031  0.00000003  0.49999999  1
  Sc  Sc1  1  -0.00000078  -0.00000014  0.00000000  1
  N  N2  1  0.33333358  0.66666677  0.22347150  1
  N  N3  1  0.66666688  0.33333334  0.77652851  1
