# generated using pymatgen
data_PtSeF2
_symmetry_space_group_name_H-M   'P 1'
_cell_length_a   4.24926802
_cell_length_b   5.16564107
_cell_length_c   10.22709302
_cell_angle_alpha   78.83016002
_cell_angle_beta   93.25658656
_cell_angle_gamma   93.05414830
_symmetry_Int_Tables_number   1
_chemical_formula_structural   PtSeF2
_chemical_formula_sum   'Pt3 Se3 F6'
_cell_volume   219.67373307
_cell_formula_units_Z   3
loop_
 _symmetry_equiv_pos_site_id
 _symmetry_equiv_pos_as_xyz
  1  'x, y, z'
loop_
 _atom_site_type_symbol
 _atom_site_label
 _atom_site_symmetry_multiplicity
 _atom_site_fract_x
 _atom_site_fract_y
 _atom_site_fract_z
 _atom_site_occupancy
  Pt  Pt0  1  0.12107114  0.32560303  0.28696680  1
  Pt  Pt1  1  -0.09964512  0.87115408  0.65603818  1
  Pt  Pt2  1  -0.00786740  -0.04421393  0.01106720  1
  Se  Se3  1  -0.18683490  0.64148406  0.48098345  1
  Se  Se4  1  0.05772648  0.43029697  0.04743302  1
  Se  Se5  1  0.16692648  0.29961492  0.52698205  1
  F  F6  1  0.49462295  -0.04494176  0.01166952  1
  F  F7  1  0.41238388  0.83159764  0.68043901  1
  F  F8  1  0.45607886  0.46470109  -0.00948907  1
  F  F9  1  0.61289481  0.28049353  0.28970972  1
  F  F10  1  -0.04569926  0.09293858  0.81110717  1
  F  F11  1  0.01834208  0.85127180  0.20709295  1
