# generated using pymatgen
data_Rb2H3Au
_symmetry_space_group_name_H-M   'P 1'
_cell_length_a   7.73965729
_cell_length_b   7.73977164
_cell_length_c   18.39029808
_cell_angle_alpha   90.00294196
_cell_angle_beta   90.00317877
_cell_angle_gamma   119.99674161
_symmetry_Int_Tables_number   1
_chemical_formula_structural   Rb2H3Au
_chemical_formula_sum   'Rb12 H18 Au6'
_cell_volume   954.07723679
_cell_formula_units_Z   6
loop_
 _symmetry_equiv_pos_site_id
 _symmetry_equiv_pos_as_xyz
  1  'x, y, z'
loop_
 _atom_site_type_symbol
 _atom_site_label
 _atom_site_symmetry_multiplicity
 _atom_site_fract_x
 _atom_site_fract_y
 _atom_site_fract_z
 _atom_site_occupancy
  Rb  Rb0  1  0.68168754  0.02437903  0.40592278  1
  Rb  Rb1  1  0.02440987  0.68167730  0.90592248  1
  Rb  Rb2  1  0.34271405  0.02431417  0.09402275  1
  Rb  Rb3  1  0.68157881  0.65722117  0.09403043  1
  Rb  Rb4  1  0.97558444  0.31831938  0.09407890  1
  Rb  Rb5  1  0.97572555  0.65727155  0.40597163  1
  Rb  Rb6  1  0.34277722  0.31839040  0.40593968  1
  Rb  Rb7  1  0.31831830  0.97562294  0.59407555  1
  Rb  Rb8  1  0.65727917  0.97567793  0.90597739  1
  Rb  Rb9  1  0.02427849  0.34272692  0.59402893  1
  Rb  Rb10  1  0.65722139  0.68160577  0.59405833  1
  Rb  Rb11  1  0.31841915  0.34277832  0.90597022  1
  H  H12  1  0.33330346  0.66667941  0.99411470  1
  H  H13  1  0.66669657  0.33332160  0.00588465  1
  H  H14  1  0.66666159  0.33329654  0.49411462  1
  H  H15  1  0.33333907  0.66670120  0.50588598  1
  H  H16  1  -0.00000212  -0.00000082  -0.00000011  1
  H  H17  1  -0.00000009  -0.00000100  0.49999999  1
  H  H18  1  0.68450084  0.62504124  0.82267564  1
  H  H19  1  0.68447214  0.05939091  0.67734765  1
  H  H20  1  0.62495952  0.94038939  0.17735276  1
  H  H21  1  0.31550878  0.37495627  0.17731890  1
  H  H22  1  0.94038065  0.62496758  0.67735831  1
  H  H23  1  0.94065806  0.31555165  0.82268417  1
  H  H24  1  0.37503395  0.05960528  0.82264847  1
  H  H25  1  0.62505592  0.68445177  0.32266705  1
  H  H26  1  0.05935963  0.68446460  0.17732608  1
  H  H27  1  0.37494079  0.31553654  0.67733640  1
  H  H28  1  0.05962646  0.37503391  0.32263927  1
  H  H29  1  0.31552172  0.94060581  0.32264965  1
  Au  Au30  1  0.19347918  0.80653120  0.25003473  1
  Au  Au31  1  0.38695264  0.19349127  0.75000555  1
  Au  Au32  1  0.80652725  0.19348419  0.74996297  1
  Au  Au33  1  0.80647306  0.61307724  0.74998189  1
  Au  Au34  1  0.61303997  0.80651472  0.24999057  1
  Au  Au35  1  0.19351699  0.38692466  0.25002105  1
