# generated using pymatgen
data_Rb2IrC
_symmetry_space_group_name_H-M   'P 1'
_cell_length_a   4.26339735
_cell_length_b   4.26389037
_cell_length_c   8.96383212
_cell_angle_alpha   90.00158123
_cell_angle_beta   89.99953918
_cell_angle_gamma   119.99532933
_symmetry_Int_Tables_number   1
_chemical_formula_structural   Rb2IrC
_chemical_formula_sum   'Rb2 Ir1 C1'
_cell_volume   141.12586753
_cell_formula_units_Z   1
loop_
 _symmetry_equiv_pos_site_id
 _symmetry_equiv_pos_as_xyz
  1  'x, y, z'
loop_
 _atom_site_type_symbol
 _atom_site_label
 _atom_site_symmetry_multiplicity
 _atom_site_fract_x
 _atom_site_fract_y
 _atom_site_fract_z
 _atom_site_occupancy
  Rb  Rb0  1  0.66668250  0.33332844  0.21324484  1
  Rb  Rb1  1  0.33331765  0.66667165  0.78675524  1
  Ir  Ir2  1  -0.00000003  -0.00000007  0.49999999  1
  C  C3  1  -0.00000013  -0.00000001  -0.00000006  1
