# generated using pymatgen
data_Rb3GaTe3
_symmetry_space_group_name_H-M   'P 1'
_cell_length_a   10.86895261
_cell_length_b   9.15329531
_cell_length_c   9.15308299
_cell_angle_alpha   105.40839202
_cell_angle_beta   113.31990699
_cell_angle_gamma   113.31971964
_symmetry_Int_Tables_number   1
_chemical_formula_structural   Rb3GaTe3
_chemical_formula_sum   'Rb6 Ga2 Te6'
_cell_volume   664.63088722
_cell_formula_units_Z   2
loop_
 _symmetry_equiv_pos_site_id
 _symmetry_equiv_pos_as_xyz
  1  'x, y, z'
loop_
 _atom_site_type_symbol
 _atom_site_label
 _atom_site_symmetry_multiplicity
 _atom_site_fract_x
 _atom_site_fract_y
 _atom_site_fract_z
 _atom_site_occupancy
  Rb  Rb0  1  0.52470329  0.02465865  0.68236356  1
  Rb  Rb1  1  0.34233847  0.34231581  0.31765205  1
  Rb  Rb2  1  0.50006730  -0.02463154  0.15766143  1
  Rb  Rb3  1  0.00006836  0.65765714  0.47536735  1
  Rb  Rb4  1  0.84233886  0.81765315  0.84231447  1
  Rb  Rb5  1  0.02470253  0.18235595  0.52465644  1
  Ga  Ga6  1  -0.02190735  0.49986433  -0.00010041  1
  Ga  Ga7  1  0.47809687  0.49990382  -0.00013265  1
  Te  Te8  1  0.43027337  0.61636675  0.76976929  1
  Te  Te9  1  0.93027499  0.26977786  0.11635557  1
  Te  Te10  1  0.66047882  0.73020960  0.34653579  1
  Te  Te11  1  0.16046967  0.84652658  0.23019807  1
  Te  Te12  1  0.31404156  0.15354619  0.88378833  1
  Te  Te13  1  0.81405123  0.38379570  0.65357071  1
