# generated using pymatgen
data_Rb3VTe3
_symmetry_space_group_name_H-M   'P 1'
_cell_length_a   10.83429810
_cell_length_b   10.83427891
_cell_length_c   10.06517153
_cell_angle_alpha   85.55982721
_cell_angle_beta   85.55884131
_cell_angle_gamma   80.98084350
_symmetry_Int_Tables_number   1
_chemical_formula_structural   Rb3VTe3
_chemical_formula_sum   'Rb12 V4 Te12'
_cell_volume   1160.79737420
_cell_formula_units_Z   4
loop_
 _symmetry_equiv_pos_site_id
 _symmetry_equiv_pos_as_xyz
  1  'x, y, z'
loop_
 _atom_site_type_symbol
 _atom_site_label
 _atom_site_symmetry_multiplicity
 _atom_site_fract_x
 _atom_site_fract_y
 _atom_site_fract_z
 _atom_site_occupancy
  Rb  Rb0  1  0.60171628  0.39828423  0.25000103  1
  Rb  Rb1  1  0.39828351  0.60171594  0.74999831  1
  Rb  Rb2  1  0.91364655  0.08635317  0.24999935  1
  Rb  Rb3  1  0.08635439  0.91364604  0.75000023  1
  Rb  Rb4  1  0.78588624  0.39967677  0.87473541  1
  Rb  Rb5  1  0.60032360  0.21411273  0.62526512  1
  Rb  Rb6  1  0.21411498  0.60032286  0.12526366  1
  Rb  Rb7  1  0.39967736  0.78588586  0.37473477  1
  Rb  Rb8  1  0.75052118  0.80829323  0.68552617  1
  Rb  Rb9  1  0.19170900  0.24947828  0.81447041  1
  Rb  Rb10  1  0.24947912  0.19170658  0.31447384  1
  Rb  Rb11  1  0.80829242  0.75052208  0.18552769  1
  V  V12  1  0.92445638  0.44014114  0.46301890  1
  V  V13  1  0.55986140  0.07554646  0.03698769  1
  V  V14  1  0.07553728  0.55985947  0.53697789  1
  V  V15  1  0.44014374  0.92446069  0.96301879  1
  Te  Te16  1  0.04157305  0.58074124  0.79246978  1
  Te  Te17  1  0.41925867  0.95842479  0.70753073  1
  Te  Te18  1  0.95842583  0.41925763  0.20752760  1
  Te  Te19  1  0.58074152  0.04157558  0.29247060  1
  Te  Te20  1  0.03700928  0.77996301  0.42110126  1
  Te  Te21  1  0.22003359  0.96298906  0.07890058  1
  Te  Te22  1  0.96298943  0.22003671  0.57889680  1
  Te  Te23  1  0.77996196  0.03701131  0.92110361  1
  Te  Te24  1  0.69759325  0.54444634  0.52842344  1
  Te  Te25  1  0.45555130  0.30241505  0.97157554  1
  Te  Te26  1  0.30240820  0.45555158  0.47157367  1
  Te  Te27  1  0.54445049  0.69758216  0.02842710  1
