# generated using pymatgen
data_RbAuI2
_symmetry_space_group_name_H-M   'P 1'
_cell_length_a   5.00316689
_cell_length_b   5.00417720
_cell_length_c   16.44734257
_cell_angle_alpha   89.99698953
_cell_angle_beta   90.00839884
_cell_angle_gamma   120.04314302
_symmetry_Int_Tables_number   1
_chemical_formula_structural   RbAuI2
_chemical_formula_sum   'Rb2 Au2 I4'
_cell_volume   356.46349884
_cell_formula_units_Z   2
loop_
 _symmetry_equiv_pos_site_id
 _symmetry_equiv_pos_as_xyz
  1  'x, y, z'
loop_
 _atom_site_type_symbol
 _atom_site_label
 _atom_site_symmetry_multiplicity
 _atom_site_fract_x
 _atom_site_fract_y
 _atom_site_fract_z
 _atom_site_occupancy
  Rb  Rb0  1  0.66643989  0.33341676  0.58027950  1
  Rb  Rb1  1  0.33355706  0.66658249  0.41971994  1
  Au  Au2  1  -0.00034517  0.00025214  0.08704259  1
  Au  Au3  1  0.00034306  -0.00025318  0.91295800  1
  I  I4  1  0.33349147  0.66657792  0.10234623  1
  I  I5  1  0.66651240  0.33342410  0.89765432  1
  I  I6  1  0.33323046  0.66676493  0.67500179  1
  I  I7  1  0.66677082  0.33323485  0.32499763  1
