# generated using pymatgen
data_RbAuF4
_symmetry_space_group_name_H-M   'P 1'
_cell_length_a   5.69980017
_cell_length_b   12.71352468
_cell_length_c   5.69902609
_cell_angle_alpha   90.00254225
_cell_angle_beta   94.43761176
_cell_angle_gamma   89.97640536
_symmetry_Int_Tables_number   1
_chemical_formula_structural   RbAuF4
_chemical_formula_sum   'Rb4 Au4 F16'
_cell_volume   411.73929292
_cell_formula_units_Z   4
loop_
 _symmetry_equiv_pos_site_id
 _symmetry_equiv_pos_as_xyz
  1  'x, y, z'
loop_
 _atom_site_type_symbol
 _atom_site_label
 _atom_site_symmetry_multiplicity
 _atom_site_fract_x
 _atom_site_fract_y
 _atom_site_fract_z
 _atom_site_occupancy
  Rb  Rb0  1  0.74989501  0.87268723  0.49993170  1
  Rb  Rb1  1  0.75007528  0.62731444  -0.00002447  1
  Rb  Rb2  1  0.24989556  0.37251336  -0.00023506  1
  Rb  Rb3  1  0.25004910  0.12748723  0.49986209  1
  Au  Au4  1  0.75002094  0.12263442  -0.00000296  1
  Au  Au5  1  0.25004998  0.62221993  0.50003166  1
  Au  Au6  1  0.75002057  0.37737193  0.49998111  1
  Au  Au7  1  0.24993278  0.87778837  0.00009128  1
  F  F8  1  0.09849703  0.52223663  0.70180036  1
  F  F9  1  0.59816879  0.02263440  0.20143592  1
  F  F10  1  0.55097167  0.22308802  0.15278149  1
  F  F11  1  0.05112355  0.72232495  0.65406554  1
  F  F12  1  0.94951201  0.22283898  0.84700662  1
  F  F13  1  0.44934813  0.72215161  0.34598495  1
  F  F14  1  0.40108279  0.52211924  0.29814118  1
  F  F15  1  0.90128081  0.02240371  0.79865182  1
  F  F16  1  0.09854265  -0.02220368  0.20189426  1
  F  F17  1  0.59840127  0.47744565  0.70140763  1
  F  F18  1  0.55086172  0.27698475  0.65287019  1
  F  F19  1  0.05099242  0.77771570  0.15421735  1
  F  F20  1  0.94941688  0.27708347  0.34709665  1
  F  F21  1  0.44921809  0.77780307  0.84612841  1
  F  F22  1  0.40112269  -0.02215272  0.79825319  1
  F  F23  1  0.90151929  0.47751033  0.29863012  1
