# generated using pymatgen
data_RbCu2As
_symmetry_space_group_name_H-M   'P 1'
_cell_length_a   3.05426904
_cell_length_b   9.13176501
_cell_length_c   7.20261749
_cell_angle_alpha   64.22970768
_cell_angle_beta   89.99989744
_cell_angle_gamma   90.00002617
_symmetry_Int_Tables_number   1
_chemical_formula_structural   RbCu2As
_chemical_formula_sum   'Rb2 Cu4 As2'
_cell_volume   180.90786911
_cell_formula_units_Z   2
loop_
 _symmetry_equiv_pos_site_id
 _symmetry_equiv_pos_as_xyz
  1  'x, y, z'
loop_
 _atom_site_type_symbol
 _atom_site_label
 _atom_site_symmetry_multiplicity
 _atom_site_fract_x
 _atom_site_fract_y
 _atom_site_fract_z
 _atom_site_occupancy
  Rb  Rb0  1  -0.00000028  0.00000333  0.49999387  1
  Rb  Rb1  1  0.50000026  0.50000388  0.49999171  1
  Cu  Cu2  1  0.49999916  0.18182443  0.66386045  1
  Cu  Cu3  1  0.00000047  0.31810444  0.33626266  1
  Cu  Cu4  1  0.50000027  0.81818024  0.33613728  1
  Cu  Cu5  1  -0.00000037  0.68189611  0.66373999  1
  As  As6  1  0.00000015  0.49999433  0.00000508  1
  As  As7  1  0.50000033  -0.00000677  0.00000896  1
