# generated using pymatgen
data_RbCuS
_symmetry_space_group_name_H-M   'P 1'
_cell_length_a   4.57880994
_cell_length_b   4.57881003
_cell_length_c   4.57880997
_cell_angle_alpha   59.99985694
_cell_angle_beta   59.99985610
_cell_angle_gamma   59.99985748
_symmetry_Int_Tables_number   1
_chemical_formula_structural   RbCuS
_chemical_formula_sum   'Rb1 Cu1 S1'
_cell_volume   67.87994075
_cell_formula_units_Z   1
loop_
 _symmetry_equiv_pos_site_id
 _symmetry_equiv_pos_as_xyz
  1  'x, y, z'
loop_
 _atom_site_type_symbol
 _atom_site_label
 _atom_site_symmetry_multiplicity
 _atom_site_fract_x
 _atom_site_fract_y
 _atom_site_fract_z
 _atom_site_occupancy
  Rb  Rb0  1  0.49999988  0.49999987  0.49999990  1
  Cu  Cu1  1  0.74999992  0.74999996  0.74999991  1
  S  S2  1  0.00000020  0.00000017  0.00000019  1
