# generated using pymatgen
data_RbErH4
_symmetry_space_group_name_H-M   'P 1'
_cell_length_a   5.30717869
_cell_length_b   6.60232508
_cell_length_c   5.30552710
_cell_angle_alpha   89.78788498
_cell_angle_beta   89.99994280
_cell_angle_gamma   89.99984454
_symmetry_Int_Tables_number   1
_chemical_formula_structural   RbErH4
_chemical_formula_sum   'Rb2 Er2 H8'
_cell_volume   185.90290433
_cell_formula_units_Z   2
loop_
 _symmetry_equiv_pos_site_id
 _symmetry_equiv_pos_as_xyz
  1  'x, y, z'
loop_
 _atom_site_type_symbol
 _atom_site_label
 _atom_site_symmetry_multiplicity
 _atom_site_fract_x
 _atom_site_fract_y
 _atom_site_fract_z
 _atom_site_occupancy
  Rb  Rb0  1  0.24763171  0.00000059  0.74999953  1
  Rb  Rb1  1  0.75236846  -0.00000088  0.25000088  1
  Er  Er2  1  0.74928970  0.49999784  0.74999976  1
  Er  Er3  1  0.25071034  0.50000189  0.24999912  1
  H  H4  1  0.03724346  0.32368587  0.96149928  1
  H  H5  1  0.53534256  0.32106564  0.03614934  1
  H  H6  1  0.53534364  0.67893281  0.46384993  1
  H  H7  1  0.03724542  0.67631298  0.53849996  1
  H  H8  1  -0.03724577  0.32368733  0.46150021  1
  H  H9  1  0.46465648  0.32106716  0.53615033  1
  H  H10  1  0.46465724  0.67893425  -0.03614906  1
  H  H11  1  -0.03724325  0.67631450  0.03850074  1
