# generated using pymatgen
data_RbHBr2
_symmetry_space_group_name_H-M   'P 1'
_cell_length_a   4.10872807
_cell_length_b   4.10880247
_cell_length_c   7.42258453
_cell_angle_alpha   90.00069333
_cell_angle_beta   90.00029662
_cell_angle_gamma   119.99976652
_symmetry_Int_Tables_number   1
_chemical_formula_structural   RbHBr2
_chemical_formula_sum   'Rb1 H1 Br2'
_cell_volume   108.51992071
_cell_formula_units_Z   1
loop_
 _symmetry_equiv_pos_site_id
 _symmetry_equiv_pos_as_xyz
  1  'x, y, z'
loop_
 _atom_site_type_symbol
 _atom_site_label
 _atom_site_symmetry_multiplicity
 _atom_site_fract_x
 _atom_site_fract_y
 _atom_site_fract_z
 _atom_site_occupancy
  Rb  Rb0  1  -0.00000005  -0.00000006  0.00000003  1
  H  H1  1  0.00000053  0.00000088  0.49999997  1
  Br  Br2  1  0.33333557  0.66666957  0.32048299  1
  Br  Br3  1  0.66666394  0.33332961  0.67951701  1
