# generated using pymatgen
data_RbHgH2
_symmetry_space_group_name_H-M   'P 1'
_cell_length_a   3.85127525
_cell_length_b   5.71718733
_cell_length_c   7.63116875
_cell_angle_alpha   91.45551353
_cell_angle_beta   90.00000046
_cell_angle_gamma   89.99999635
_symmetry_Int_Tables_number   1
_chemical_formula_structural   RbHgH2
_chemical_formula_sum   'Rb2 Hg2 H4'
_cell_volume   167.97238549
_cell_formula_units_Z   2
loop_
 _symmetry_equiv_pos_site_id
 _symmetry_equiv_pos_as_xyz
  1  'x, y, z'
loop_
 _atom_site_type_symbol
 _atom_site_label
 _atom_site_symmetry_multiplicity
 _atom_site_fract_x
 _atom_site_fract_y
 _atom_site_fract_z
 _atom_site_occupancy
  Rb  Rb0  1  0.50000001  0.50000000  -0.00000001  1
  Rb  Rb1  1  0.49999994  0.50000000  0.50000000  1
  Hg  Hg2  1  -0.00000001  -0.00146689  0.71535399  1
  Hg  Hg3  1  0.00000005  0.00146688  0.28464602  1
  H  H4  1  0.50000001  0.06838466  0.72310936  1
  H  H5  1  -0.00000002  0.66343951  0.75801428  1
  H  H6  1  0.00000000  0.33656049  0.24198571  1
  H  H7  1  0.50000002  -0.06838466  0.27689066  1
