# generated using pymatgen
data_RbNa2P
_symmetry_space_group_name_H-M   'P 1'
_cell_length_a   10.43622063
_cell_length_b   10.43624623
_cell_length_c   10.43627739
_cell_angle_alpha   111.76101448
_cell_angle_beta   111.76008755
_cell_angle_gamma   111.75997573
_symmetry_Int_Tables_number   1
_chemical_formula_structural   RbNa2P
_chemical_formula_sum   'Rb6 Na12 P6'
_cell_volume   792.23731296
_cell_formula_units_Z   6
loop_
 _symmetry_equiv_pos_site_id
 _symmetry_equiv_pos_as_xyz
  1  'x, y, z'
loop_
 _atom_site_type_symbol
 _atom_site_label
 _atom_site_symmetry_multiplicity
 _atom_site_fract_x
 _atom_site_fract_y
 _atom_site_fract_z
 _atom_site_occupancy
  Rb  Rb0  1  0.27162508  0.06257599  0.80374729  1
  Rb  Rb1  1  0.72837545  0.93742378  0.19625320  1
  Rb  Rb2  1  0.93742214  0.19625760  0.72836953  1
  Rb  Rb3  1  0.19625622  0.72837144  0.93742477  1
  Rb  Rb4  1  0.06257822  0.80374292  0.27163196  1
  Rb  Rb5  1  0.80374320  0.27162766  0.06257542  1
  Na  Na6  1  0.65665281  0.56591480  0.17705628  1
  Na  Na7  1  0.17705475  0.65665386  0.56591385  1
  Na  Na8  1  0.43408802  0.82294348  0.34334517  1
  Na  Na9  1  0.56591222  0.17705705  0.65665459  1
  Na  Na10  1  0.34334726  0.43408482  0.82294358  1
  Na  Na11  1  0.82294523  0.34334586  0.43408627  1
  Na  Na12  1  0.52389608  0.66459897  0.74723128  1
  Na  Na13  1  0.74723476  0.52390244  0.66460266  1
  Na  Na14  1  0.66460290  0.74723686  0.52390617  1
  Na  Na15  1  0.47610392  0.33540106  0.25276863  1
  Na  Na16  1  0.25276551  0.47609864  0.33539745  1
  Na  Na17  1  0.33539644  0.25276284  0.47609282  1
  P  P18  1  0.48756270  0.10840377  0.33257612  1
  P  P19  1  0.10840569  0.33257659  0.48756127  1
  P  P20  1  0.33257212  0.48755492  0.10840027  1
  P  P21  1  0.51243651  0.89159589  0.66742294  1
  P  P22  1  0.89159444  0.66742347  0.51243859  1
  P  P23  1  0.66742831  0.51244528  0.89159992  1
