# generated using pymatgen
data_ReAuN
_symmetry_space_group_name_H-M   'P 1'
_cell_length_a   3.88399842
_cell_length_b   3.88399862
_cell_length_c   3.88399808
_cell_angle_alpha   60.00000219
_cell_angle_beta   60.00000890
_cell_angle_gamma   60.00000096
_symmetry_Int_Tables_number   1
_chemical_formula_structural   ReAuN
_chemical_formula_sum   'Re1 Au1 N1'
_cell_volume   41.43068939
_cell_formula_units_Z   1
loop_
 _symmetry_equiv_pos_site_id
 _symmetry_equiv_pos_as_xyz
  1  'x, y, z'
loop_
 _atom_site_type_symbol
 _atom_site_label
 _atom_site_symmetry_multiplicity
 _atom_site_fract_x
 _atom_site_fract_y
 _atom_site_fract_z
 _atom_site_occupancy
  Re  Re0  1  0.50000004  0.49999995  0.50000002  1
  Au  Au1  1  -0.00000001  0.00000003  -0.00000002  1
  N  N2  1  0.74999997  0.75000002  0.75000000  1
