# generated using pymatgen
data_ReAuC
_symmetry_space_group_name_H-M   'P 1'
_cell_length_a   4.15243271
_cell_length_b   4.15243404
_cell_length_c   4.15243363
_cell_angle_alpha   59.99999660
_cell_angle_beta   60.00000207
_cell_angle_gamma   60.00000642
_symmetry_Int_Tables_number   1
_chemical_formula_structural   ReAuC
_chemical_formula_sum   'Re1 Au1 C1'
_cell_volume   50.62826729
_cell_formula_units_Z   1
loop_
 _symmetry_equiv_pos_site_id
 _symmetry_equiv_pos_as_xyz
  1  'x, y, z'
loop_
 _atom_site_type_symbol
 _atom_site_label
 _atom_site_symmetry_multiplicity
 _atom_site_fract_x
 _atom_site_fract_y
 _atom_site_fract_z
 _atom_site_occupancy
  Re  Re0  1  0.00000005  -0.00000009  -0.00000011  1
  Au  Au1  1  0.24999992  0.25000005  0.25000015  1
  C  C2  1  0.50000003  0.50000004  0.49999996  1
