# generated using pymatgen
data_ReOsSe2
_symmetry_space_group_name_H-M   'P 1'
_cell_length_a   4.14530371
_cell_length_b   4.14530950
_cell_length_c   10.26752757
_cell_angle_alpha   90.00002467
_cell_angle_beta   89.99996681
_cell_angle_gamma   120.00015372
_symmetry_Int_Tables_number   1
_chemical_formula_structural   ReOsSe2
_chemical_formula_sum   'Re2 Os2 Se4'
_cell_volume   152.79500363
_cell_formula_units_Z   2
loop_
 _symmetry_equiv_pos_site_id
 _symmetry_equiv_pos_as_xyz
  1  'x, y, z'
loop_
 _atom_site_type_symbol
 _atom_site_label
 _atom_site_symmetry_multiplicity
 _atom_site_fract_x
 _atom_site_fract_y
 _atom_site_fract_z
 _atom_site_occupancy
  Re  Re0  1  0.66666401  0.33333346  0.40970530  1
  Re  Re1  1  0.33333604  0.66666652  0.59026844  1
  Os  Os2  1  -0.00000147  -0.00000020  0.25170639  1
  Os  Os3  1  0.00000131  0.00000017  0.74829899  1
  Se  Se4  1  0.66666781  0.33333330  0.65082106  1
  Se  Se5  1  0.33333336  0.66666666  0.86016752  1
  Se  Se6  1  0.66666672  0.33333339  0.13983440  1
  Se  Se7  1  0.33333222  0.66666670  0.34919788  1
