# generated using pymatgen
data_ReP2C
_symmetry_space_group_name_H-M   'P 1'
_cell_length_a   2.93100613
_cell_length_b   6.87206084
_cell_length_c   8.70751252
_cell_angle_alpha   36.08806813
_cell_angle_beta   89.99998144
_cell_angle_gamma   89.99991149
_symmetry_Int_Tables_number   1
_chemical_formula_structural   ReP2C
_chemical_formula_sum   'Re2 P4 C2'
_cell_volume   103.30797028
_cell_formula_units_Z   2
loop_
 _symmetry_equiv_pos_site_id
 _symmetry_equiv_pos_as_xyz
  1  'x, y, z'
loop_
 _atom_site_type_symbol
 _atom_site_label
 _atom_site_symmetry_multiplicity
 _atom_site_fract_x
 _atom_site_fract_y
 _atom_site_fract_z
 _atom_site_occupancy
  Re  Re0  1  0.50000005  0.00000050  0.49999979  1
  Re  Re1  1  -0.00000004  0.00000865  -0.00000739  1
  P  P2  1  0.00000053  0.51868534  0.79700831  1
  P  P3  1  0.49999898  0.16530308  0.67516061  1
  P  P4  1  0.50000087  0.83469604  0.32483694  1
  P  P5  1  -0.00000086  0.48131717  0.20299024  1
  C  C6  1  -0.00000007  0.50000210  -0.00000093  1
  C  C7  1  0.00000054  0.49998712  0.50001242  1
