# generated using pymatgen
data_ReP2Br
_symmetry_space_group_name_H-M   'P 1'
_cell_length_a   3.05927476
_cell_length_b   7.51691005
_cell_length_c   8.99820746
_cell_angle_alpha   63.23733246
_cell_angle_beta   90.00295910
_cell_angle_gamma   90.00106646
_symmetry_Int_Tables_number   1
_chemical_formula_structural   ReP2Br
_chemical_formula_sum   'Re2 P4 Br2'
_cell_volume   184.75944384
_cell_formula_units_Z   2
loop_
 _symmetry_equiv_pos_site_id
 _symmetry_equiv_pos_as_xyz
  1  'x, y, z'
loop_
 _atom_site_type_symbol
 _atom_site_label
 _atom_site_symmetry_multiplicity
 _atom_site_fract_x
 _atom_site_fract_y
 _atom_site_fract_z
 _atom_site_occupancy
  Re  Re0  1  0.00005676  0.49938787  0.00016571  1
  Re  Re1  1  -0.00002122  0.50010737  0.49992939  1
  P  P2  1  0.00000247  0.53308300  0.74388897  1
  P  P3  1  0.49999793  0.22627748  0.64034392  1
  P  P4  1  0.49998504  0.77382433  0.35956957  1
  P  P5  1  -0.00002266  0.46692001  0.25604477  1
  Br  Br6  1  0.49999784  0.00004454  0.50003175  1
  Br  Br7  1  0.00000384  0.00035540  0.00002592  1
