# generated using pymatgen
data_ReSbC
_symmetry_space_group_name_H-M   'P 1'
_cell_length_a   4.02572249
_cell_length_b   4.02572176
_cell_length_c   4.02572232
_cell_angle_alpha   60.00001887
_cell_angle_beta   60.00003190
_cell_angle_gamma   59.99998528
_symmetry_Int_Tables_number   1
_chemical_formula_structural   ReSbC
_chemical_formula_sum   'Re1 Sb1 C1'
_cell_volume   46.13351282
_cell_formula_units_Z   1
loop_
 _symmetry_equiv_pos_site_id
 _symmetry_equiv_pos_as_xyz
  1  'x, y, z'
loop_
 _atom_site_type_symbol
 _atom_site_label
 _atom_site_symmetry_multiplicity
 _atom_site_fract_x
 _atom_site_fract_y
 _atom_site_fract_z
 _atom_site_occupancy
  Re  Re0  1  0.00000001  -0.00000006  0.00000002  1
  Sb  Sb1  1  0.49999999  0.50000002  0.50000001  1
  C  C2  1  0.25000000  0.25000004  0.24999997  1
