# generated using pymatgen
data_ReSbSe2
_symmetry_space_group_name_H-M   'P 1'
_cell_length_a   2.83570409
_cell_length_b   5.54484730
_cell_length_c   5.43467017
_cell_angle_alpha   89.87737153
_cell_angle_beta   90.00055592
_cell_angle_gamma   90.00015020
_symmetry_Int_Tables_number   1
_chemical_formula_structural   ReSbSe2
_chemical_formula_sum   'Re1 Sb1 Se2'
_cell_volume   85.45209164
_cell_formula_units_Z   1
loop_
 _symmetry_equiv_pos_site_id
 _symmetry_equiv_pos_as_xyz
  1  'x, y, z'
loop_
 _atom_site_type_symbol
 _atom_site_label
 _atom_site_symmetry_multiplicity
 _atom_site_fract_x
 _atom_site_fract_y
 _atom_site_fract_z
 _atom_site_occupancy
  Re  Re0  1  -0.00000066  0.00000307  0.00000044  1
  Sb  Sb1  1  0.00000012  -0.00000119  0.50000033  1
  Se  Se2  1  -0.00000000  0.50000009  0.49999963  1
  Se  Se3  1  0.00000055  0.49999803  -0.00000039  1
