# generated using pymatgen
data_RuRhN4
_symmetry_space_group_name_H-M   'P 1'
_cell_length_a   4.80880296
_cell_length_b   4.77502164
_cell_length_c   4.99787598
_cell_angle_alpha   89.73605388
_cell_angle_beta   90.00034118
_cell_angle_gamma   90.00032837
_symmetry_Int_Tables_number   1
_chemical_formula_structural   RuRhN4
_chemical_formula_sum   'Ru2 Rh2 N8'
_cell_volume   114.76070117
_cell_formula_units_Z   2
loop_
 _symmetry_equiv_pos_site_id
 _symmetry_equiv_pos_as_xyz
  1  'x, y, z'
loop_
 _atom_site_type_symbol
 _atom_site_label
 _atom_site_symmetry_multiplicity
 _atom_site_fract_x
 _atom_site_fract_y
 _atom_site_fract_z
 _atom_site_occupancy
  Ru  Ru0  1  0.73687715  0.50002778  0.75000300  1
  Ru  Ru1  1  0.26311514  0.49997180  0.24999721  1
  Rh  Rh2  1  0.24357775  0.00000345  0.74999927  1
  Rh  Rh3  1  0.75641291  -0.00000338  0.25000077  1
  N  N4  1  0.99336044  0.24899745  0.97501960  1
  N  N5  1  0.49981209  0.25446608  0.02428861  1
  N  N6  1  0.49981709  0.74552753  0.47571450  1
  N  N7  1  0.99335011  0.75100863  0.52498695  1
  N  N8  1  0.00665722  0.24901594  0.47501801  1
  N  N9  1  0.50018440  0.25444921  0.52428770  1
  N  N10  1  0.50018939  0.74555744  0.97570915  1
  N  N11  1  0.00664633  0.75097808  0.02497524  1
