# generated using pymatgen
data_RuWN2
_symmetry_space_group_name_H-M   'P 1'
_cell_length_a   2.86368460
_cell_length_b   4.95938809
_cell_length_c   6.70250761
_cell_angle_alpha   75.84652885
_cell_angle_beta   90.00000149
_cell_angle_gamma   90.00000206
_symmetry_Int_Tables_number   1
_chemical_formula_structural   RuWN2
_chemical_formula_sum   'Ru2 W2 N4'
_cell_volume   92.30027961
_cell_formula_units_Z   2
loop_
 _symmetry_equiv_pos_site_id
 _symmetry_equiv_pos_as_xyz
  1  'x, y, z'
loop_
 _atom_site_type_symbol
 _atom_site_label
 _atom_site_symmetry_multiplicity
 _atom_site_fract_x
 _atom_site_fract_y
 _atom_site_fract_z
 _atom_site_occupancy
  Ru  Ru0  1  -0.00000006  0.49999999  0.00000000  1
  Ru  Ru1  1  0.50000005  -0.00000000  -0.00000000  1
  W  W2  1  0.00000002  -0.00000001  0.50000001  1
  W  W3  1  0.49999998  0.50000001  0.49999999  1
  N  N4  1  0.50000002  0.10145110  0.69636526  1
  N  N5  1  -0.00000002  0.39855899  0.30373299  1
  N  N6  1  0.49999996  0.89854893  0.30363474  1
  N  N7  1  0.00000005  0.60144100  0.69626701  1
