# generated using pymatgen
data_Sb2PdPb
_symmetry_space_group_name_H-M   'P 1'
_cell_length_a   3.07877444
_cell_length_b   6.30124896
_cell_length_c   6.25210995
_cell_angle_alpha   120.27520121
_cell_angle_beta   90.00000122
_cell_angle_gamma   89.99999909
_symmetry_Int_Tables_number   1
_chemical_formula_structural   Sb2PdPb
_chemical_formula_sum   'Sb2 Pd1 Pb1'
_cell_volume   104.74919925
_cell_formula_units_Z   1
loop_
 _symmetry_equiv_pos_site_id
 _symmetry_equiv_pos_as_xyz
  1  'x, y, z'
loop_
 _atom_site_type_symbol
 _atom_site_label
 _atom_site_symmetry_multiplicity
 _atom_site_fract_x
 _atom_site_fract_y
 _atom_site_fract_z
 _atom_site_occupancy
  Sb  Sb0  1  -0.00000001  0.50000000  0.50000000  1
  Sb  Sb1  1  0.00000001  0.50000002  0.00000000  1
  Pd  Pd2  1  0.00000001  -0.00000004  -0.00000001  1
  Pb  Pb3  1  -0.00000001  0.00000001  0.50000001  1
