# generated using pymatgen
data_SbSe2I
_symmetry_space_group_name_H-M   'P 1'
_cell_length_a   9.26121908
_cell_length_b   9.26121978
_cell_length_c   17.28558349
_cell_angle_alpha   81.81592952
_cell_angle_beta   81.81586263
_cell_angle_gamma   90.09394084
_symmetry_Int_Tables_number   1
_chemical_formula_structural   SbSe2I
_chemical_formula_sum   'Sb8 Se16 I8'
_cell_volume   1452.18035061
_cell_formula_units_Z   8
loop_
 _symmetry_equiv_pos_site_id
 _symmetry_equiv_pos_as_xyz
  1  'x, y, z'
loop_
 _atom_site_type_symbol
 _atom_site_label
 _atom_site_symmetry_multiplicity
 _atom_site_fract_x
 _atom_site_fract_y
 _atom_site_fract_z
 _atom_site_occupancy
  Sb  Sb0  1  0.90710925  0.29424164  0.83613547  1
  Sb  Sb1  1  0.70575845  0.09289072  0.66386481  1
  Sb  Sb2  1  0.09289093  0.70575869  0.16386440  1
  Sb  Sb3  1  0.29424134  0.90710906  0.33613535  1
  Sb  Sb4  1  0.70868484  0.56401805  0.65505296  1
  Sb  Sb5  1  0.43598181  0.29131528  0.84494710  1
  Sb  Sb6  1  0.29131507  0.43598199  0.34494697  1
  Sb  Sb7  1  0.56401811  0.70868499  0.15505292  1
  Se  Se8  1  0.91681033  0.53968873  0.74129172  1
  Se  Se9  1  0.46031080  0.08318965  0.75870866  1
  Se  Se10  1  0.08318975  0.46031154  0.25870818  1
  Se  Se11  1  0.53968902  0.91681040  0.24129142  1
  Se  Se12  1  0.14697465  0.26105979  0.96442628  1
  Se  Se13  1  0.73894083  0.85302560  0.53557238  1
  Se  Se14  1  0.85302525  0.73894032  0.03557363  1
  Se  Se15  1  0.26105906  0.14697418  0.46442773  1
  Se  Se16  1  0.91308737  0.08691230  0.75000038  1
  Se  Se17  1  0.08691263  0.91308781  0.24999962  1
  Se  Se18  1  0.65387606  0.27695716  0.92410099  1
  Se  Se19  1  0.72304298  0.34612349  0.57589946  1
  Se  Se20  1  0.34612410  0.72304296  0.07589888  1
  Se  Se21  1  0.27695695  0.65387629  0.42410065  1
  Se  Se22  1  0.46260621  0.53739318  0.75000005  1
  Se  Se23  1  0.53739373  0.46260714  0.24999996  1
  I  I24  1  0.09757815  0.76426298  0.93537112  1
  I  I25  1  0.23573674  0.90242201  0.56462984  1
  I  I26  1  0.90242192  0.23573721  0.06462846  1
  I  I27  1  0.76426291  0.09757782  0.43537068  1
  I  I28  1  0.23062249  0.32631086  0.56739341  1
  I  I29  1  0.67368999  0.76937733  0.93260693  1
  I  I30  1  0.76937763  0.67368839  0.43260689  1
  I  I31  1  0.32631067  0.23062243  0.06739270  1
