# generated using pymatgen
data_ScGaAs2
_symmetry_space_group_name_H-M   'P 1'
_cell_length_a   8.69396437
_cell_length_b   8.69394452
_cell_length_c   8.69395585
_cell_angle_alpha   107.24430919
_cell_angle_beta   107.24429713
_cell_angle_gamma   107.24426425
_symmetry_Int_Tables_number   1
_chemical_formula_structural   ScGaAs2
_chemical_formula_sum   'Sc6 Ga6 As12'
_cell_volume   543.57704402
_cell_formula_units_Z   6
loop_
 _symmetry_equiv_pos_site_id
 _symmetry_equiv_pos_as_xyz
  1  'x, y, z'
loop_
 _atom_site_type_symbol
 _atom_site_label
 _atom_site_symmetry_multiplicity
 _atom_site_fract_x
 _atom_site_fract_y
 _atom_site_fract_z
 _atom_site_occupancy
  Sc  Sc0  1  0.24360042  0.06993356  0.71152868  1
  Sc  Sc1  1  0.75639908  0.93006581  0.28847098  1
  Sc  Sc2  1  0.93006607  0.28847133  0.75639908  1
  Sc  Sc3  1  0.28847151  0.75639946  0.93006681  1
  Sc  Sc4  1  0.06993428  0.71152891  0.24360083  1
  Sc  Sc5  1  0.71152853  0.24360050  0.06993352  1
  Ga  Ga6  1  0.40819709  0.08708731  0.35509491  1
  Ga  Ga7  1  0.08708657  0.35509476  0.40819631  1
  Ga  Ga8  1  0.35509473  0.40819827  0.08708720  1
  Ga  Ga9  1  0.59180293  0.91291296  0.64490544  1
  Ga  Ga10  1  0.91291346  0.64490518  0.59180358  1
  Ga  Ga11  1  0.64490519  0.59180171  0.91291279  1
  As  As12  1  0.71594285  0.57997341  0.20619609  1
  As  As13  1  0.20619604  0.71594185  0.57997331  1
  As  As14  1  0.42002709  0.79380383  0.28405808  1
  As  As15  1  0.57997293  0.20619634  0.71594191  1
  As  As16  1  0.28405749  0.42002649  0.79380382  1
  As  As17  1  0.79380401  0.28405804  0.42002666  1
  As  As18  1  0.62470133  0.87901520  0.93765898  1
  As  As19  1  0.93765996  0.62470254  0.87901657  1
  As  As20  1  0.87901559  0.93765890  0.62470167  1
  As  As21  1  0.37529867  0.12098498  0.06234123  1
  As  As22  1  0.06234005  0.37529763  0.12098340  1
  As  As23  1  0.12098411  0.06234102  0.37529817  1
