# generated using pymatgen
data_ScHCl4
_symmetry_space_group_name_H-M   'P 1'
_cell_length_a   6.40891480
_cell_length_b   7.61183828
_cell_length_c   11.78817729
_cell_angle_alpha   90.00003361
_cell_angle_beta   71.58694242
_cell_angle_gamma   89.99997283
_symmetry_Int_Tables_number   1
_chemical_formula_structural   ScHCl4
_chemical_formula_sum   'Sc4 H4 Cl16'
_cell_volume   545.62874291
_cell_formula_units_Z   4
loop_
 _symmetry_equiv_pos_site_id
 _symmetry_equiv_pos_as_xyz
  1  'x, y, z'
loop_
 _atom_site_type_symbol
 _atom_site_label
 _atom_site_symmetry_multiplicity
 _atom_site_fract_x
 _atom_site_fract_y
 _atom_site_fract_z
 _atom_site_occupancy
  Sc  Sc0  1  0.00003076  0.06280506  0.74999599  1
  Sc  Sc1  1  0.00003078  0.93731636  0.24999556  1
  Sc  Sc2  1  0.49998348  0.43700903  0.74998988  1
  Sc  Sc3  1  0.49998367  0.56311971  0.24999029  1
  H  H4  1  0.00012577  0.50009912  0.49988998  1
  H  H5  1  -0.00013793  0.50010456  0.00011843  1
  H  H6  1  0.49990539  0.00007002  0.50007842  1
  H  H7  1  0.50017595  0.00013020  -0.00014503  1
  Cl  Cl8  1  0.10646926  0.37275138  0.88940977  1
  Cl  Cl9  1  0.11900739  0.88522071  0.87058803  1
  Cl  Cl10  1  0.10628644  0.62705100  0.38960896  1
  Cl  Cl11  1  0.11899001  0.11481349  0.37063029  1
  Cl  Cl12  1  0.38125602  0.61511422  0.62965946  1
  Cl  Cl13  1  0.39404634  0.12724548  0.61055589  1
  Cl  Cl14  1  0.38124390  0.38492383  0.12970231  1
  Cl  Cl15  1  0.39386683  0.87255265  0.11075483  1
  Cl  Cl16  1  0.60592403  0.12719779  0.88948746  1
  Cl  Cl17  1  0.61873299  0.61509035  0.87033478  1
  Cl  Cl18  1  0.60610338  0.87260160  0.38928852  1
  Cl  Cl19  1  0.61874622  0.38494708  0.37029199  1
  Cl  Cl20  1  0.88099031  0.88523140  0.62941902  1
  Cl  Cl21  1  0.89352397  0.37275607  0.61058839  1
  Cl  Cl22  1  0.88100823  0.11480262  0.12937696  1
  Cl  Cl23  1  0.89370680  0.62704628  0.11038982  1
