# generated using pymatgen
data_Si3Bi3Au
_symmetry_space_group_name_H-M   'P 1'
_cell_length_a   8.04908151
_cell_length_b   8.04908006
_cell_length_c   8.04906765
_cell_angle_alpha   108.72218230
_cell_angle_beta   108.72227957
_cell_angle_gamma   108.72247288
_symmetry_Int_Tables_number   1
_chemical_formula_structural   Si3Bi3Au
_chemical_formula_sum   'Si6 Bi6 Au2'
_cell_volume   412.19104994
_cell_formula_units_Z   2
loop_
 _symmetry_equiv_pos_site_id
 _symmetry_equiv_pos_as_xyz
  1  'x, y, z'
loop_
 _atom_site_type_symbol
 _atom_site_label
 _atom_site_symmetry_multiplicity
 _atom_site_fract_x
 _atom_site_fract_y
 _atom_site_fract_z
 _atom_site_occupancy
  Si  Si0  1  0.65469610  0.54933833  0.29591982  1
  Si  Si1  1  0.79591992  0.04933967  0.15469592  1
  Si  Si2  1  0.29592003  0.65469635  0.54933979  1
  Si  Si3  1  0.15469648  0.79591984  0.04933900  1
  Si  Si4  1  0.54933898  0.29591960  0.65469538  1
  Si  Si5  1  0.04933850  0.15469588  0.79592006  1
  Bi  Bi6  1  0.91165643  0.41122756  0.95498937  1
  Bi  Bi7  1  0.45499016  0.91122773  0.41165652  1
  Bi  Bi8  1  0.95498936  0.91165682  0.41122768  1
  Bi  Bi9  1  0.41165671  0.45498920  0.91122732  1
  Bi  Bi10  1  0.41122797  0.95499071  0.91165643  1
  Bi  Bi11  1  0.91122767  0.41165637  0.45499004  1
  Au  Au12  1  0.49747044  0.49747138  0.49747108  1
  Au  Au13  1  -0.00252874  -0.00252943  -0.00252840  1
