# generated using pymatgen
data_Si3Mo3P
_symmetry_space_group_name_H-M   'P 1'
_cell_length_a   7.87502399
_cell_length_b   7.87588652
_cell_length_c   7.11010566
_cell_angle_alpha   94.01676295
_cell_angle_beta   94.00850950
_cell_angle_gamma   76.32833967
_symmetry_Int_Tables_number   1
_chemical_formula_structural   Si3Mo3P
_chemical_formula_sum   'Si12 Mo12 P4'
_cell_volume   426.79325452
_cell_formula_units_Z   4
loop_
 _symmetry_equiv_pos_site_id
 _symmetry_equiv_pos_as_xyz
  1  'x, y, z'
loop_
 _atom_site_type_symbol
 _atom_site_label
 _atom_site_symmetry_multiplicity
 _atom_site_fract_x
 _atom_site_fract_y
 _atom_site_fract_z
 _atom_site_occupancy
  Si  Si0  1  -0.05643643  0.63954498  0.89627074  1
  Si  Si1  1  0.36047365  0.05638759  0.60381052  1
  Si  Si2  1  0.05645663  0.36043574  0.10370114  1
  Si  Si3  1  0.63954597  -0.05641099  0.39621839  1
  Si  Si4  1  0.06147105  0.82903802  0.38420920  1
  Si  Si5  1  0.17093731  0.93857409  0.11576763  1
  Si  Si6  1  0.93852047  0.17095808  0.61578723  1
  Si  Si7  1  0.82906493  0.06143329  0.88423626  1
  Si  Si8  1  0.67567371  0.54712953  0.56990772  1
  Si  Si9  1  0.45281929  0.32438315  0.93004256  1
  Si  Si10  1  0.32433103  0.45287275  0.43010109  1
  Si  Si11  1  0.54718015  0.67561299  0.06995001  1
  Mo  Mo12  1  0.58783380  0.41212609  0.25001373  1
  Mo  Mo13  1  0.41216291  0.58787750  0.74998620  1
  Mo  Mo14  1  0.87769991  0.12217080  0.24997448  1
  Mo  Mo15  1  0.12229513  0.87783366  0.75002583  1
  Mo  Mo16  1  0.76954547  0.40054305  0.90547459  1
  Mo  Mo17  1  0.59943388  0.23046355  0.59452674  1
  Mo  Mo18  1  0.23045932  0.59945939  0.09451900  1
  Mo  Mo19  1  0.40056394  0.76953178  0.40548024  1
  Mo  Mo20  1  0.67008276  0.83818677  0.72565814  1
  Mo  Mo21  1  0.16180290  0.33001019  0.77414206  1
  Mo  Mo22  1  0.32990823  0.16181245  0.27439980  1
  Mo  Mo23  1  0.83819788  0.66999718  0.22579730  1
  P  P24  1  0.88702318  0.40483135  0.37563027  1
  P  P25  1  0.59498682  0.11304542  0.12436151  1
  P  P26  1  0.11297203  0.59519064  0.62434372  1
  P  P27  1  0.40499409  0.88696095  0.87566390  1
