# generated using pymatgen
data_Si3TeOs3
_symmetry_space_group_name_H-M   'P 1'
_cell_length_a   6.30706425
_cell_length_b   6.30740889
_cell_length_c   6.30659266
_cell_angle_alpha   102.36236898
_cell_angle_beta   102.33474070
_cell_angle_gamma   102.39435532
_symmetry_Int_Tables_number   1
_chemical_formula_structural   Si3TeOs3
_chemical_formula_sum   'Si6 Te2 Os6'
_cell_volume   230.32548390
_cell_formula_units_Z   2
loop_
 _symmetry_equiv_pos_site_id
 _symmetry_equiv_pos_as_xyz
  1  'x, y, z'
loop_
 _atom_site_type_symbol
 _atom_site_label
 _atom_site_symmetry_multiplicity
 _atom_site_fract_x
 _atom_site_fract_y
 _atom_site_fract_z
 _atom_site_occupancy
  Si  Si0  1  0.01844381  0.39752706  0.80845158  1
  Si  Si1  1  0.39721171  0.80864513  0.01822883  1
  Si  Si2  1  0.80856825  0.01846133  0.39776656  1
  Si  Si3  1  0.30850174  0.89725242  0.51830581  1
  Si  Si4  1  0.89784933  0.51853855  0.30850738  1
  Si  Si5  1  0.51830420  0.30862033  0.89744081  1
  Te  Te6  1  0.57844016  0.57837390  0.57840946  1
  Te  Te7  1  0.07835809  0.07839837  0.07843869  1
  Os  Os8  1  0.74177112  0.70711638  0.03188253  1
  Os  Os9  1  0.70690291  0.03173516  0.74251480  1
  Os  Os10  1  0.24271220  0.53154414  0.20690306  1
  Os  Os11  1  0.53191531  0.20702565  0.24205572  1
  Os  Os12  1  0.20713069  0.24197465  0.53163577  1
  Os  Os13  1  0.03148648  0.74238295  0.70705502  1
