# generated using pymatgen
data_SiB2Se
_symmetry_space_group_name_H-M   'P 1'
_cell_length_a   12.17003446
_cell_length_b   12.16988841
_cell_length_c   3.29061796
_cell_angle_alpha   82.09786825
_cell_angle_beta   82.09789810
_cell_angle_gamma   152.60731218
_symmetry_Int_Tables_number   1
_chemical_formula_structural   SiB2Se
_chemical_formula_sum   'Si2 B4 Se2'
_cell_volume   182.56025164
_cell_formula_units_Z   2
loop_
 _symmetry_equiv_pos_site_id
 _symmetry_equiv_pos_as_xyz
  1  'x, y, z'
loop_
 _atom_site_type_symbol
 _atom_site_label
 _atom_site_symmetry_multiplicity
 _atom_site_fract_x
 _atom_site_fract_y
 _atom_site_fract_z
 _atom_site_occupancy
  Si  Si0  1  0.50000303  0.00000422  0.00000196  1
  Si  Si1  1  -0.00000258  0.49999760  0.49999703  1
  B  B2  1  0.34267269  0.34253985  0.28554418  1
  B  B3  1  0.65732863  0.65746108  0.71445968  1
  B  B4  1  0.65745929  0.65732853  0.21445589  1
  B  B5  1  0.34253982  0.34267019  0.78554022  1
  Se  Se6  1  0.31764950  0.68236654  0.74999171  1
  Se  Se7  1  0.68234961  0.31763199  0.25000934  1
