# generated using pymatgen
data_SiOs2C
_symmetry_space_group_name_H-M   'P 1'
_cell_length_a   2.87530629
_cell_length_b   4.97872348
_cell_length_c   8.25584286
_cell_angle_alpha   53.20469056
_cell_angle_beta   89.99979274
_cell_angle_gamma   89.99959913
_symmetry_Int_Tables_number   1
_chemical_formula_structural   SiOs2C
_chemical_formula_sum   'Si2 Os4 C2'
_cell_volume   94.64048940
_cell_formula_units_Z   2
loop_
 _symmetry_equiv_pos_site_id
 _symmetry_equiv_pos_as_xyz
  1  'x, y, z'
loop_
 _atom_site_type_symbol
 _atom_site_label
 _atom_site_symmetry_multiplicity
 _atom_site_fract_x
 _atom_site_fract_y
 _atom_site_fract_z
 _atom_site_occupancy
  Si  Si0  1  0.49999999  -0.00000047  0.50000153  1
  Si  Si1  1  0.00000000  0.49999955  0.50000075  1
  Os  Os2  1  -0.00000013  0.45517804  0.21068004  1
  Os  Os3  1  0.00000012  0.54482207  0.78931939  1
  Os  Os4  1  0.49999951  -0.04452775  0.21058044  1
  Os  Os5  1  0.50000050  0.04452842  0.78941893  1
  C  C6  1  0.50000000  0.49999966  -0.00000032  1
  C  C7  1  0.00000001  0.00000048  -0.00000076  1
