# generated using pymatgen
data_SiSbF
_symmetry_space_group_name_H-M   'P 1'
_cell_length_a   4.30843476
_cell_length_b   4.30843513
_cell_length_c   4.30843529
_cell_angle_alpha   59.99998849
_cell_angle_beta   59.99998467
_cell_angle_gamma   59.99998967
_symmetry_Int_Tables_number   1
_chemical_formula_structural   SiSbF
_chemical_formula_sum   'Si1 Sb1 F1'
_cell_volume   56.55142264
_cell_formula_units_Z   1
loop_
 _symmetry_equiv_pos_site_id
 _symmetry_equiv_pos_as_xyz
  1  'x, y, z'
loop_
 _atom_site_type_symbol
 _atom_site_label
 _atom_site_symmetry_multiplicity
 _atom_site_fract_x
 _atom_site_fract_y
 _atom_site_fract_z
 _atom_site_occupancy
  Si  Si0  1  0.25000003  0.24999998  0.24999999  1
  Sb  Sb1  1  0.49999998  0.50000002  0.50000001  1
  F  F2  1  -0.00000001  -0.00000000  -0.00000000  1
