# generated using pymatgen
data_SiSnPd
_symmetry_space_group_name_H-M   'P 1'
_cell_length_a   4.48722520
_cell_length_b   4.48722544
_cell_length_c   4.48722420
_cell_angle_alpha   60.00000391
_cell_angle_beta   59.99999329
_cell_angle_gamma   59.99999325
_symmetry_Int_Tables_number   1
_chemical_formula_structural   SiSnPd
_chemical_formula_sum   'Si1 Sn1 Pd1'
_cell_volume   63.88788270
_cell_formula_units_Z   1
loop_
 _symmetry_equiv_pos_site_id
 _symmetry_equiv_pos_as_xyz
  1  'x, y, z'
loop_
 _atom_site_type_symbol
 _atom_site_label
 _atom_site_symmetry_multiplicity
 _atom_site_fract_x
 _atom_site_fract_y
 _atom_site_fract_z
 _atom_site_occupancy
  Si  Si0  1  -0.00000007  -0.00000001  -0.00000005  1
  Sn  Sn1  1  0.24999989  0.24999994  0.25000003  1
  Pd  Pd2  1  0.50000018  0.50000007  0.50000002  1
