# generated using pymatgen
data_SiSnP2
_symmetry_space_group_name_H-M   'P 1'
_cell_length_a   4.99707802
_cell_length_b   4.99709089
_cell_length_c   14.03939491
_cell_angle_alpha   90.00019192
_cell_angle_beta   90.00027825
_cell_angle_gamma   120.00028947
_symmetry_Int_Tables_number   1
_chemical_formula_structural   SiSnP2
_chemical_formula_sum   'Si4 Sn4 P8'
_cell_volume   303.60654798
_cell_formula_units_Z   4
loop_
 _symmetry_equiv_pos_site_id
 _symmetry_equiv_pos_as_xyz
  1  'x, y, z'
loop_
 _atom_site_type_symbol
 _atom_site_label
 _atom_site_symmetry_multiplicity
 _atom_site_fract_x
 _atom_site_fract_y
 _atom_site_fract_z
 _atom_site_occupancy
  Si  Si0  1  0.33333126  0.66666630  0.87531712  1
  Si  Si1  1  0.66666799  0.33333338  0.62622720  1
  Si  Si2  1  0.33333220  0.66666653  0.37377613  1
  Si  Si3  1  0.66666770  0.33333310  0.12468031  1
  Sn  Sn4  1  0.00000034  -0.00000009  0.87288534  1
  Sn  Sn5  1  0.00000013  -0.00000028  0.37695670  1
  Sn  Sn6  1  -0.00000040  0.00000003  0.62304292  1
  Sn  Sn7  1  -0.00000041  0.00000007  0.12711562  1
  P  P8  1  0.66666784  0.33333311  0.79341312  1
  P  P9  1  0.33332955  0.66666529  0.20659041  1
  P  P10  1  0.66666788  0.33333331  0.45836933  1
  P  P11  1  0.66667027  0.33333464  0.29366957  1
  P  P12  1  0.33333512  0.66666878  0.04384807  1
  P  P13  1  0.66666702  0.33333275  0.95615161  1
  P  P14  1  0.33333213  0.66666644  0.70632518  1
  P  P15  1  0.33333138  0.66666665  0.54163138  1
