# generated using pymatgen
data_Sm3H3N
_symmetry_space_group_name_H-M   'P 1'
_cell_length_a   8.47600446
_cell_length_b   8.58747865
_cell_length_c   6.60424032
_cell_angle_alpha   96.19550078
_cell_angle_beta   96.12363308
_cell_angle_gamma   85.99505783
_symmetry_Int_Tables_number   1
_chemical_formula_structural   Sm3H3N
_chemical_formula_sum   'Sm12 H12 N4'
_cell_volume   474.34369847
_cell_formula_units_Z   4
loop_
 _symmetry_equiv_pos_site_id
 _symmetry_equiv_pos_as_xyz
  1  'x, y, z'
loop_
 _atom_site_type_symbol
 _atom_site_label
 _atom_site_symmetry_multiplicity
 _atom_site_fract_x
 _atom_site_fract_y
 _atom_site_fract_z
 _atom_site_occupancy
  Sm  Sm0  1  0.65121515  0.11908785  0.36488109  1
  Sm  Sm1  1  0.85076605  0.37587273  0.13755232  1
  Sm  Sm2  1  0.34868990  0.88097752  0.63530498  1
  Sm  Sm3  1  0.14885767  0.62444519  0.86260010  1
  Sm  Sm4  1  0.45955676  0.27678392  0.85904783  1
  Sm  Sm5  1  0.71042489  0.53735928  0.62644233  1
  Sm  Sm6  1  0.54036840  0.72331790  0.14123116  1
  Sm  Sm7  1  0.28953545  0.46278272  0.37337533  1
  Sm  Sm8  1  0.79075246  -0.03606812  0.87201201  1
  Sm  Sm9  1  0.03968625  0.22421721  0.64641449  1
  Sm  Sm10  1  0.20917878  0.03620087  0.12810824  1
  Sm  Sm11  1  -0.03969228  0.77597143  0.35361756  1
  H  H12  1  0.28952211  0.19018667  0.49404139  1
  H  H13  1  0.78849642  0.69762973  -0.01707926  1
  H  H14  1  0.71060411  0.81011724  0.50615255  1
  H  H15  1  0.21181844  0.30243502  0.01764744  1
  H  H16  1  0.93854097  0.44391015  0.82636500  1
  H  H17  1  0.56130447  0.05806067  0.67640675  1
  H  H18  1  0.06132996  0.55611804  0.17375857  1
  H  H19  1  0.43858416  0.94202772  0.32374878  1
  H  H20  1  0.46034258  0.48134073  0.67284934  1
  H  H21  1  0.54035717  0.51722416  0.32551919  1
  H  H22  1  0.04459585  0.01267335  0.82414458  1
  H  H23  1  0.95546769  -0.01274983  0.17553824  1
  N  N24  1  0.67612588  0.18160657  0.04019119  1
  N  N25  1  0.82217007  0.31682576  0.46311152  1
  N  N26  1  0.32371740  0.81842467  0.95997078  1
  N  N27  1  0.17768427  0.68322281  0.53704452  1
