# generated using pymatgen
data_SmAs2Pt
_symmetry_space_group_name_H-M   'P 1'
_cell_length_a   3.93336926
_cell_length_b   6.84569431
_cell_length_c   11.03640832
_cell_angle_alpha   36.71383279
_cell_angle_beta   89.99999919
_cell_angle_gamma   89.99999908
_symmetry_Int_Tables_number   1
_chemical_formula_structural   SmAs2Pt
_chemical_formula_sum   'Sm2 As4 Pt2'
_cell_volume   177.65583549
_cell_formula_units_Z   2
loop_
 _symmetry_equiv_pos_site_id
 _symmetry_equiv_pos_as_xyz
  1  'x, y, z'
loop_
 _atom_site_type_symbol
 _atom_site_label
 _atom_site_symmetry_multiplicity
 _atom_site_fract_x
 _atom_site_fract_y
 _atom_site_fract_z
 _atom_site_occupancy
  Sm  Sm0  1  0.00000034  0.49999131  0.00000763  1
  Sm  Sm1  1  0.00000032  0.50000337  0.50000175  1
  As  As2  1  -0.00000040  0.63153087  0.68469637  1
  As  As3  1  0.50000021  0.00091083  0.84219013  1
  As  As4  1  0.50000023  0.99908705  0.15781129  1
  As  As5  1  -0.00000040  0.36847358  0.31530817  1
  Pt  Pt6  1  0.49999960  0.00000168  0.49998703  1
  Pt  Pt7  1  0.00000009  0.00000131  -0.00000236  1
