# generated using pymatgen
data_SmErN2
_symmetry_space_group_name_H-M   'P 1'
_cell_length_a   3.55093688
_cell_length_b   6.12804973
_cell_length_c   6.23317869
_cell_angle_alpha   79.91794026
_cell_angle_beta   90.00487753
_cell_angle_gamma   89.98574715
_symmetry_Int_Tables_number   1
_chemical_formula_structural   SmErN2
_chemical_formula_sum   'Sm2 Er2 N4'
_cell_volume   133.54145942
_cell_formula_units_Z   2
loop_
 _symmetry_equiv_pos_site_id
 _symmetry_equiv_pos_as_xyz
  1  'x, y, z'
loop_
 _atom_site_type_symbol
 _atom_site_label
 _atom_site_symmetry_multiplicity
 _atom_site_fract_x
 _atom_site_fract_y
 _atom_site_fract_z
 _atom_site_occupancy
  Sm  Sm0  1  0.00000008  0.00000001  -0.00000003  1
  Sm  Sm1  1  0.50000091  -0.00000005  0.49999996  1
  Er  Er2  1  0.50011955  0.55698270  0.23817191  1
  Er  Er3  1  0.49988002  0.44301724  0.76182810  1
  N  N4  1  0.49995589  0.24195970  0.09965069  1
  N  N5  1  -0.00008955  0.23992779  0.63853843  1
  N  N6  1  0.00008839  0.76007235  0.36146149  1
  N  N7  1  0.50004471  0.75804025  0.90034944  1
