# generated using pymatgen
data_SmMgSi
_symmetry_space_group_name_H-M   'P 1'
_cell_length_a   4.85861032
_cell_length_b   4.85861046
_cell_length_c   4.85861041
_cell_angle_alpha   59.99988955
_cell_angle_beta   59.99988838
_cell_angle_gamma   59.99988642
_symmetry_Int_Tables_number   1
_chemical_formula_structural   SmMgSi
_chemical_formula_sum   'Sm1 Mg1 Si1'
_cell_volume   81.09986406
_cell_formula_units_Z   1
loop_
 _symmetry_equiv_pos_site_id
 _symmetry_equiv_pos_as_xyz
  1  'x, y, z'
loop_
 _atom_site_type_symbol
 _atom_site_label
 _atom_site_symmetry_multiplicity
 _atom_site_fract_x
 _atom_site_fract_y
 _atom_site_fract_z
 _atom_site_occupancy
  Sm  Sm0  1  0.25000001  0.25000000  0.24999999  1
  Mg  Mg1  1  0.49999998  0.50000002  0.50000000  1
  Si  Si2  1  0.00000001  -0.00000002  0.00000001  1
