# generated using pymatgen
data_SmMg2Se3
_symmetry_space_group_name_H-M   'P 1'
_cell_length_a   9.45177308
_cell_length_b   9.45177322
_cell_length_c   9.45177838
_cell_angle_alpha   109.47211258
_cell_angle_beta   109.47141568
_cell_angle_gamma   109.47152853
_symmetry_Int_Tables_number   1
_chemical_formula_structural   SmMg2Se3
_chemical_formula_sum   'Sm4 Mg8 Se12'
_cell_volume   649.99608707
_cell_formula_units_Z   4
loop_
 _symmetry_equiv_pos_site_id
 _symmetry_equiv_pos_as_xyz
  1  'x, y, z'
loop_
 _atom_site_type_symbol
 _atom_site_label
 _atom_site_symmetry_multiplicity
 _atom_site_fract_x
 _atom_site_fract_y
 _atom_site_fract_z
 _atom_site_occupancy
  Sm  Sm0  1  0.24999955  0.24999954  0.24999953  1
  Sm  Sm1  1  -0.00000286  0.24999865  0.50000221  1
  Sm  Sm2  1  0.25000000  0.50000252  -0.00000216  1
  Sm  Sm3  1  0.50000257  -0.00000238  0.25000037  1
  Mg  Mg4  1  0.50000212  0.00000405  0.90460633  1
  Mg  Mg5  1  0.59539517  0.49999805  0.00000013  1
  Mg  Mg6  1  0.90460470  0.90460563  0.90460494  1
  Mg  Mg7  1  -0.00000169  0.59539356  0.49999734  1
  Mg  Mg8  1  0.49999761  -0.00000211  0.59539439  1
  Mg  Mg9  1  0.90460494  0.50000029  0.00000199  1
  Mg  Mg10  1  0.00000176  0.90460429  0.50000094  1
  Mg  Mg11  1  0.59539489  0.59539434  0.59539384  1
  Se  Se12  1  0.57764675  0.74999851  0.32764932  1
  Se  Se13  1  0.24999410  0.57764288  0.32763998  1
  Se  Se14  1  0.75000100  0.92235255  0.17234938  1
  Se  Se15  1  0.57764241  0.32763955  0.24999462  1
  Se  Se16  1  0.92235313  0.17235155  0.75000207  1
  Se  Se17  1  0.32764143  0.24999706  0.57764385  1
  Se  Se18  1  0.32764789  0.57764634  0.74999796  1
  Se  Se19  1  0.25000598  0.17236037  0.92235704  1
  Se  Se20  1  0.17235958  0.92235646  0.25000557  1
  Se  Se21  1  0.74999902  0.32764997  0.57764676  1
  Se  Se22  1  0.92235777  0.25000639  0.17236130  1
  Se  Se23  1  0.17235219  0.75000196  0.92235230  1
