# generated using pymatgen
data_SmSi3P2
_symmetry_space_group_name_H-M   'P 1'
_cell_length_a   8.26200165
_cell_length_b   8.26200166
_cell_length_c   8.26200172
_cell_angle_alpha   109.47121560
_cell_angle_beta   109.47121364
_cell_angle_gamma   109.47123001
_symmetry_Int_Tables_number   1
_chemical_formula_structural   SmSi3P2
_chemical_formula_sum   'Sm4 Si12 P8'
_cell_volume   434.14415630
_cell_formula_units_Z   4
loop_
 _symmetry_equiv_pos_site_id
 _symmetry_equiv_pos_as_xyz
  1  'x, y, z'
loop_
 _atom_site_type_symbol
 _atom_site_label
 _atom_site_symmetry_multiplicity
 _atom_site_fract_x
 _atom_site_fract_y
 _atom_site_fract_z
 _atom_site_occupancy
  Sm  Sm0  1  0.25000001  0.25000001  0.25000002  1
  Sm  Sm1  1  0.00000000  0.24999999  0.50000002  1
  Sm  Sm2  1  0.24999998  0.49999998  -0.00000000  1
  Sm  Sm3  1  0.50000000  0.00000003  0.25000002  1
  Si  Si4  1  0.65186643  0.75000003  0.40186641  1
  Si  Si5  1  0.25000001  0.65186639  0.40186642  1
  Si  Si6  1  0.75000002  0.84813362  0.09813362  1
  Si  Si7  1  0.65186645  0.40186644  0.25000002  1
  Si  Si8  1  0.84813353  0.09813355  0.74999995  1
  Si  Si9  1  0.40186640  0.24999999  0.65186640  1
  Si  Si10  1  0.40186640  0.65186641  0.74999999  1
  Si  Si11  1  0.24999998  0.09813358  0.84813355  1
  Si  Si12  1  0.09813357  0.84813357  0.24999998  1
  Si  Si13  1  0.75000003  0.40186644  0.65186644  1
  Si  Si14  1  0.84813359  0.25000000  0.09813360  1
  Si  Si15  1  0.09813358  0.74999996  0.84813356  1
  P  P16  1  0.50000002  0.00000002  0.88726090  1
  P  P17  1  0.61273911  0.49999999  -0.00000000  1
  P  P18  1  0.88726088  0.88726088  0.88726087  1
  P  P19  1  0.00000000  0.61273912  0.50000000  1
  P  P20  1  0.49999997  -0.00000004  0.61273911  1
  P  P21  1  0.88726085  0.50000000  -0.00000002  1
  P  P22  1  0.00000003  0.88726086  0.49999997  1
  P  P23  1  0.61273915  0.61273916  0.61273918  1
