# generated using pymatgen
data_SmSiRh
_symmetry_space_group_name_H-M   'P 1'
_cell_length_a   4.50662627
_cell_length_b   4.50662621
_cell_length_c   4.50662609
_cell_angle_alpha   59.99999008
_cell_angle_beta   59.99999239
_cell_angle_gamma   59.99999201
_symmetry_Int_Tables_number   1
_chemical_formula_structural   SmSiRh
_chemical_formula_sum   'Sm1 Si1 Rh1'
_cell_volume   64.72015175
_cell_formula_units_Z   1
loop_
 _symmetry_equiv_pos_site_id
 _symmetry_equiv_pos_as_xyz
  1  'x, y, z'
loop_
 _atom_site_type_symbol
 _atom_site_label
 _atom_site_symmetry_multiplicity
 _atom_site_fract_x
 _atom_site_fract_y
 _atom_site_fract_z
 _atom_site_occupancy
  Sm  Sm0  1  0.00000001  0.00000000  -0.00000001  1
  Si  Si1  1  0.49999999  0.50000000  0.49999999  1
  Rh  Rh2  1  0.75000000  0.75000000  0.75000001  1
