# generated using pymatgen
data_SmTmSb2
_symmetry_space_group_name_H-M   'P 1'
_cell_length_a   4.37561204
_cell_length_b   4.37542386
_cell_length_c   7.52178018
_cell_angle_alpha   90.00000469
_cell_angle_beta   90.00016264
_cell_angle_gamma   119.99732602
_symmetry_Int_Tables_number   1
_chemical_formula_structural   SmTmSb2
_chemical_formula_sum   'Sm1 Tm1 Sb2'
_cell_volume   124.71592426
_cell_formula_units_Z   1
loop_
 _symmetry_equiv_pos_site_id
 _symmetry_equiv_pos_as_xyz
  1  'x, y, z'
loop_
 _atom_site_type_symbol
 _atom_site_label
 _atom_site_symmetry_multiplicity
 _atom_site_fract_x
 _atom_site_fract_y
 _atom_site_fract_z
 _atom_site_occupancy
  Sm  Sm0  1  -0.00000001  0.99998575  0.50000000  1
  Tm  Tm1  1  0.00000002  -0.00001361  -0.00000001  1
  Sb  Sb2  1  0.66662519  0.33330818  0.75879808  1
  Sb  Sb3  1  0.33337480  0.66666077  0.24120193  1
