# generated using pymatgen
data_SmVN2
_symmetry_space_group_name_H-M   'P 1'
_cell_length_a   7.75353966
_cell_length_b   7.75340615
_cell_length_c   7.75311488
_cell_angle_alpha   111.58319836
_cell_angle_beta   111.58556496
_cell_angle_gamma   111.58614188
_symmetry_Int_Tables_number   1
_chemical_formula_structural   SmVN2
_chemical_formula_sum   'Sm6 V6 N12'
_cell_volume   327.72927247
_cell_formula_units_Z   6
loop_
 _symmetry_equiv_pos_site_id
 _symmetry_equiv_pos_as_xyz
  1  'x, y, z'
loop_
 _atom_site_type_symbol
 _atom_site_label
 _atom_site_symmetry_multiplicity
 _atom_site_fract_x
 _atom_site_fract_y
 _atom_site_fract_z
 _atom_site_occupancy
  Sm  Sm0  1  0.07500381  0.32754402  0.37214478  1
  Sm  Sm1  1  0.62786909  0.92500149  0.67245470  1
  Sm  Sm2  1  0.92498445  0.67244242  0.62785291  1
  Sm  Sm3  1  0.32754359  0.37213542  0.07500087  1
  Sm  Sm4  1  0.37214266  0.07501252  0.32755122  1
  Sm  Sm5  1  0.67245123  0.62786575  0.92499476  1
  V  V6  1  0.39426714  0.79657556  0.99273850  1
  V  V7  1  0.79658820  0.99275246  0.39428082  1
  V  V8  1  0.99273070  0.39425341  0.79656816  1
  V  V9  1  0.60573190  0.20342643  0.00726332  1
  V  V10  1  0.20342264  0.00726335  0.60573016  1
  V  V11  1  0.00727086  0.60573376  0.20342998  1
  N  N12  1  0.02482702  -0.04301375  0.32459704  1
  N  N13  1  -0.04301950  0.32458894  0.02481993  1
  N  N14  1  0.32460108  0.02482711  -0.04301780  1
  N  N15  1  0.97517249  0.04301451  0.67539990  1
  N  N16  1  0.04301282  0.67540458  0.97517509  1
  N  N17  1  0.67540759  0.97517758  0.04302380  1
  N  N18  1  0.81887160  0.27814141  0.49000959  1
  N  N19  1  0.27814467  0.49001020  0.81887377  1
  N  N20  1  0.50999328  0.18113236  0.72185366  1
  N  N21  1  0.18112279  0.72185253  0.50998410  1
  N  N22  1  0.72185296  0.50998777  0.18112473  1
  N  N23  1  0.49000693  0.81887016  0.27814600  1
