# generated using pymatgen
data_SnHBr
_symmetry_space_group_name_H-M   'P 1'
_cell_length_a   4.79534255
_cell_length_b   4.79534246
_cell_length_c   4.79534075
_cell_angle_alpha   59.99999205
_cell_angle_beta   59.99998572
_cell_angle_gamma   59.99998726
_symmetry_Int_Tables_number   1
_chemical_formula_structural   SnHBr
_chemical_formula_sum   'Sn1 H1 Br1'
_cell_volume   77.97288867
_cell_formula_units_Z   1
loop_
 _symmetry_equiv_pos_site_id
 _symmetry_equiv_pos_as_xyz
  1  'x, y, z'
loop_
 _atom_site_type_symbol
 _atom_site_label
 _atom_site_symmetry_multiplicity
 _atom_site_fract_x
 _atom_site_fract_y
 _atom_site_fract_z
 _atom_site_occupancy
  Sn  Sn0  1  0.24999992  0.25000006  0.24999996  1
  H  H1  1  0.49999995  0.50000002  0.49999999  1
  Br  Br2  1  0.00000013  -0.00000008  0.00000004  1
