# generated using pymatgen
data_SnPdS2
_symmetry_space_group_name_H-M   'P 1'
_cell_length_a   3.89369567
_cell_length_b   6.11158943
_cell_length_c   8.10277480
_cell_angle_alpha   62.11200693
_cell_angle_beta   89.99999665
_cell_angle_gamma   90.00000297
_symmetry_Int_Tables_number   1
_chemical_formula_structural   SnPdS2
_chemical_formula_sum   'Sn2 Pd2 S4'
_cell_volume   170.42575549
_cell_formula_units_Z   2
loop_
 _symmetry_equiv_pos_site_id
 _symmetry_equiv_pos_as_xyz
  1  'x, y, z'
loop_
 _atom_site_type_symbol
 _atom_site_label
 _atom_site_symmetry_multiplicity
 _atom_site_fract_x
 _atom_site_fract_y
 _atom_site_fract_z
 _atom_site_occupancy
  Sn  Sn0  1  0.50000000  0.00000000  0.50000000  1
  Sn  Sn1  1  0.00000001  0.00000002  0.00000000  1
  Pd  Pd2  1  -0.00000001  0.49999999  -0.00000000  1
  Pd  Pd3  1  0.00000002  0.49999999  0.50000000  1
  S  S4  1  -0.00000003  0.70053174  0.68545096  1
  S  S5  1  0.50000005  0.21726290  0.70707936  1
  S  S6  1  0.49999993  0.78273710  0.29292064  1
  S  S7  1  0.00000003  0.29946826  0.31454904  1
