# generated using pymatgen
data_SnPtSe2
_symmetry_space_group_name_H-M   'P 1'
_cell_length_a   6.30098905
_cell_length_b   6.30098008
_cell_length_c   6.73889069
_cell_angle_alpha   63.46850359
_cell_angle_beta   63.46853371
_cell_angle_gamma   52.58835101
_symmetry_Int_Tables_number   1
_chemical_formula_structural   SnPtSe2
_chemical_formula_sum   'Sn2 Pt2 Se4'
_cell_volume   184.25663556
_cell_formula_units_Z   2
loop_
 _symmetry_equiv_pos_site_id
 _symmetry_equiv_pos_as_xyz
  1  'x, y, z'
loop_
 _atom_site_type_symbol
 _atom_site_label
 _atom_site_symmetry_multiplicity
 _atom_site_fract_x
 _atom_site_fract_y
 _atom_site_fract_z
 _atom_site_occupancy
  Sn  Sn0  1  0.51824146  0.48175876  0.75000024  1
  Sn  Sn1  1  0.48175834  0.51824125  0.24999975  1
  Pt  Pt2  1  -0.00000009  0.49999994  0.00000002  1
  Pt  Pt3  1  0.49999982  0.00000006  0.50000001  1
  Se  Se4  1  0.78389000  0.93429475  0.70850408  1
  Se  Se5  1  0.06570510  0.21611019  0.79149641  1
  Se  Se6  1  0.93429455  0.78388989  0.20850357  1
  Se  Se7  1  0.21610983  0.06570516  0.29149592  1
