# generated using pymatgen
data_SnSeN2
_symmetry_space_group_name_H-M   'P 1'
_cell_length_a   3.40781306
_cell_length_b   7.37516259
_cell_length_c   5.71579213
_cell_angle_alpha   67.15619240
_cell_angle_beta   90.20707038
_cell_angle_gamma   77.11261132
_symmetry_Int_Tables_number   1
_chemical_formula_structural   SnSeN2
_chemical_formula_sum   'Sn2 Se2 N4'
_cell_volume   128.40156784
_cell_formula_units_Z   2
loop_
 _symmetry_equiv_pos_site_id
 _symmetry_equiv_pos_as_xyz
  1  'x, y, z'
loop_
 _atom_site_type_symbol
 _atom_site_label
 _atom_site_symmetry_multiplicity
 _atom_site_fract_x
 _atom_site_fract_y
 _atom_site_fract_z
 _atom_site_occupancy
  Sn  Sn0  1  0.76783785  0.46841985  0.21816524  1
  Sn  Sn1  1  0.25258664  0.49902986  0.71327703  1
  Se  Se2  1  0.01931542  -0.03838076  0.06851927  1
  Se  Se3  1  0.51726240  -0.03748918  0.71203979  1
  N  N4  1  0.32970750  0.33966517  0.11711058  1
  N  N5  1  -0.18405486  0.36747656  0.61636649  1
  N  N6  1  0.14832156  0.70347941  0.25795730  1
  N  N7  1  0.64902349  0.69779908  0.79656431  1
