# generated using pymatgen
data_Sr2NCl
_symmetry_space_group_name_H-M   'P 1'
_cell_length_a   5.75502341
_cell_length_b   5.75502366
_cell_length_c   7.03642834
_cell_angle_alpha   114.20342097
_cell_angle_beta   114.20342357
_cell_angle_gamma   90.09049129
_symmetry_Int_Tables_number   1
_chemical_formula_structural   Sr2NCl
_chemical_formula_sum   'Sr4 N2 Cl2'
_cell_volume   189.80279685
_cell_formula_units_Z   2
loop_
 _symmetry_equiv_pos_site_id
 _symmetry_equiv_pos_as_xyz
  1  'x, y, z'
loop_
 _atom_site_type_symbol
 _atom_site_label
 _atom_site_symmetry_multiplicity
 _atom_site_fract_x
 _atom_site_fract_y
 _atom_site_fract_z
 _atom_site_occupancy
  Sr  Sr0  1  0.16195410  0.40923940  0.31970798  1
  Sr  Sr1  1  0.59076060  0.83804570  0.18029199  1
  Sr  Sr2  1  0.40923940  0.16195391  0.81970799  1
  Sr  Sr3  1  0.83804606  0.59076060  0.68029201  1
  N  N4  1  0.37789559  0.62210438  0.74999999  1
  N  N5  1  0.62210424  0.37789597  0.25000000  1
  Cl  Cl6  1  0.12565178  0.87434828  0.25000003  1
  Cl  Cl7  1  0.87434823  0.12565177  0.75000000  1
