# generated using pymatgen
data_Sr2SnSe3
_symmetry_space_group_name_H-M   'P 1'
_cell_length_a   9.84174594
_cell_length_b   9.84174808
_cell_length_c   9.84174929
_cell_angle_alpha   109.47128259
_cell_angle_beta   109.47118655
_cell_angle_gamma   109.47159001
_symmetry_Int_Tables_number   1
_chemical_formula_structural   Sr2SnSe3
_chemical_formula_sum   'Sr8 Sn4 Se12'
_cell_volume   733.82528504
_cell_formula_units_Z   4
loop_
 _symmetry_equiv_pos_site_id
 _symmetry_equiv_pos_as_xyz
  1  'x, y, z'
loop_
 _atom_site_type_symbol
 _atom_site_label
 _atom_site_symmetry_multiplicity
 _atom_site_fract_x
 _atom_site_fract_y
 _atom_site_fract_z
 _atom_site_occupancy
  Sr  Sr0  1  0.94115499  0.50000004  -0.00000043  1
  Sr  Sr1  1  0.55884546  0.50000018  0.00000039  1
  Sr  Sr2  1  0.50000090  0.00000067  0.55884584  1
  Sr  Sr3  1  0.49999922  -0.00000077  0.94115428  1
  Sr  Sr4  1  0.55884492  0.55884446  0.55884509  1
  Sr  Sr5  1  0.94115362  0.94115357  0.94115329  1
  Sr  Sr6  1  -0.00000023  0.55884516  0.50000059  1
  Sr  Sr7  1  0.00000015  0.94115518  0.49999953  1
  Sn  Sn8  1  0.49999872  0.00000108  0.24999959  1
  Sn  Sn9  1  0.24999964  0.49999889  -0.00000012  1
  Sn  Sn10  1  0.25000128  0.25000084  0.25000080  1
  Sn  Sn11  1  0.00000074  0.25000081  0.50000054  1
  Se  Se12  1  0.89905074  0.24999972  0.14905090  1
  Se  Se13  1  0.89905206  0.14905198  0.75000029  1
  Se  Se14  1  0.60094803  0.35094812  0.25000035  1
  Se  Se15  1  0.75000014  0.35094864  0.60094886  1
  Se  Se16  1  0.75000047  0.89905100  0.14905110  1
  Se  Se17  1  0.60094866  0.74999923  0.35094847  1
  Se  Se18  1  0.35095006  0.25000042  0.60094941  1
  Se  Se19  1  0.25000028  0.60094933  0.35094954  1
  Se  Se20  1  0.24999960  0.14905126  0.89905105  1
  Se  Se21  1  0.14905177  0.89905204  0.24999974  1
  Se  Se22  1  0.35094722  0.60094743  0.74999966  1
  Se  Se23  1  0.14905155  0.75000074  0.89905125  1
