# generated using pymatgen
data_SrHF
_symmetry_space_group_name_H-M   'P 1'
_cell_length_a   4.11882548
_cell_length_b   4.11882567
_cell_length_c   4.11882570
_cell_angle_alpha   59.99993077
_cell_angle_beta   59.99993455
_cell_angle_gamma   59.99994272
_symmetry_Int_Tables_number   1
_chemical_formula_structural   SrHF
_chemical_formula_sum   'Sr1 H1 F1'
_cell_volume   49.40883203
_cell_formula_units_Z   1
loop_
 _symmetry_equiv_pos_site_id
 _symmetry_equiv_pos_as_xyz
  1  'x, y, z'
loop_
 _atom_site_type_symbol
 _atom_site_label
 _atom_site_symmetry_multiplicity
 _atom_site_fract_x
 _atom_site_fract_y
 _atom_site_fract_z
 _atom_site_occupancy
  Sr  Sr0  1  0.00000013  0.00000012  -0.00000010  1
  H  H1  1  0.49999995  0.49999992  0.50000008  1
  F  F2  1  0.74999992  0.74999997  0.75000003  1
