# generated using pymatgen
data_SrLi2C
_symmetry_space_group_name_H-M   'P 1'
_cell_length_a   3.59045252
_cell_length_b   5.61024322
_cell_length_c   7.54425886
_cell_angle_alpha   91.88768683
_cell_angle_beta   90.03394073
_cell_angle_gamma   90.08074385
_symmetry_Int_Tables_number   1
_chemical_formula_structural   SrLi2C
_chemical_formula_sum   'Sr2 Li4 C2'
_cell_volume   151.88370781
_cell_formula_units_Z   2
loop_
 _symmetry_equiv_pos_site_id
 _symmetry_equiv_pos_as_xyz
  1  'x, y, z'
loop_
 _atom_site_type_symbol
 _atom_site_label
 _atom_site_symmetry_multiplicity
 _atom_site_fract_x
 _atom_site_fract_y
 _atom_site_fract_z
 _atom_site_occupancy
  Sr  Sr0  1  -0.00003831  -0.24818773  0.66763818  1
  Sr  Sr1  1  -0.00210207  0.24809042  0.33238927  1
  Li  Li2  1  0.49981239  0.34654666  0.74199150  1
  Li  Li3  1  0.00138793  0.69846457  0.03386216  1
  Li  Li4  1  0.00063125  0.30169285  -0.03383584  1
  Li  Li5  1  0.50020428  0.65336377  0.25800363  1
  C  C6  1  0.50119553  0.50008199  -0.00003984  1
  C  C7  1  0.49890900  0.49994748  0.49999096  1
