# generated using pymatgen
data_SrRuCl4
_symmetry_space_group_name_H-M   'P 1'
_cell_length_a   7.39847285
_cell_length_b   6.14797549
_cell_length_c   6.66314484
_cell_angle_alpha   87.15293404
_cell_angle_beta   89.96819700
_cell_angle_gamma   89.99694662
_symmetry_Int_Tables_number   1
_chemical_formula_structural   SrRuCl4
_chemical_formula_sum   'Sr2 Ru2 Cl8'
_cell_volume   302.70319538
_cell_formula_units_Z   2
loop_
 _symmetry_equiv_pos_site_id
 _symmetry_equiv_pos_as_xyz
  1  'x, y, z'
loop_
 _atom_site_type_symbol
 _atom_site_label
 _atom_site_symmetry_multiplicity
 _atom_site_fract_x
 _atom_site_fract_y
 _atom_site_fract_z
 _atom_site_occupancy
  Sr  Sr0  1  0.33267018  -0.00029258  0.75021561  1
  Sr  Sr1  1  0.66697868  0.00001531  0.24981036  1
  Ru  Ru2  1  0.87845225  0.50004013  0.74996919  1
  Ru  Ru3  1  0.12155666  0.49987795  0.24994136  1
  Cl  Cl4  1  0.36133764  0.26803020  0.39162336  1
  Cl  Cl5  1  0.36160528  -0.26839440  0.10850902  1
  Cl  Cl6  1  0.63874407  -0.26772624  0.60875042  1
  Cl  Cl7  1  0.63827290  0.26855451  -0.10826486  1
  Cl  Cl8  1  -0.09929426  0.29401267  0.44869580  1
  Cl  Cl9  1  -0.09867400  0.70612646  0.05084911  1
  Cl  Cl10  1  0.09930442  0.70553637  0.55118231  1
  Cl  Cl11  1  0.09904618  0.29421959  -0.05128169  1
