# generated using pymatgen
data_SrSi2Os3
_symmetry_space_group_name_H-M   'P 1'
_cell_length_a   8.25562548
_cell_length_b   8.25563659
_cell_length_c   8.25563270
_cell_angle_alpha   109.47085083
_cell_angle_beta   109.47151344
_cell_angle_gamma   109.47139643
_symmetry_Int_Tables_number   1
_chemical_formula_structural   SrSi2Os3
_chemical_formula_sum   'Sr4 Si8 Os12'
_cell_volume   433.14019961
_cell_formula_units_Z   4
loop_
 _symmetry_equiv_pos_site_id
 _symmetry_equiv_pos_as_xyz
  1  'x, y, z'
loop_
 _atom_site_type_symbol
 _atom_site_label
 _atom_site_symmetry_multiplicity
 _atom_site_fract_x
 _atom_site_fract_y
 _atom_site_fract_z
 _atom_site_occupancy
  Sr  Sr0  1  0.49999847  -0.00000121  0.24999923  1
  Sr  Sr1  1  0.25000027  0.50000060  0.00000038  1
  Sr  Sr2  1  0.25000018  0.24999948  0.25000012  1
  Sr  Sr3  1  0.00000087  0.25000044  0.50000061  1
  Si  Si4  1  0.90014158  0.50000194  0.00000132  1
  Si  Si5  1  0.59985947  0.50000046  -0.00000015  1
  Si  Si6  1  0.49999667  -0.00000253  0.59985784  1
  Si  Si7  1  0.49999872  -0.00000006  0.90014027  1
  Si  Si8  1  0.59985909  0.59986012  0.59985924  1
  Si  Si9  1  0.90014123  0.90013937  0.90014056  1
  Si  Si10  1  0.00000261  0.59986104  0.50000109  1
  Si  Si11  1  0.00000039  0.90014023  0.50000007  1
  Os  Os12  1  0.83656804  0.25000014  0.08656677  1
  Os  Os13  1  0.83656652  0.08656788  0.75000192  1
  Os  Os14  1  0.66343393  0.41343242  0.24999983  1
  Os  Os15  1  0.74999935  0.41343240  0.66343236  1
  Os  Os16  1  0.74999903  0.83656826  0.08656726  1
  Os  Os17  1  0.66343216  0.75000018  0.41343190  1
  Os  Os18  1  0.41343480  0.25000059  0.66343221  1
  Os  Os19  1  0.24999977  0.66342929  0.41343052  1
  Os  Os20  1  0.24999962  0.08656854  0.83656787  1
  Os  Os21  1  0.08656679  0.83656886  0.25000055  1
  Os  Os22  1  0.41343415  0.66343393  0.75000171  1
  Os  Os23  1  0.08656627  0.74999765  0.83656653  1
