# generated using pymatgen
data_SrSnAs2
_symmetry_space_group_name_H-M   'P 1'
_cell_length_a   9.35033971
_cell_length_b   9.35168356
_cell_length_c   9.34698119
_cell_angle_alpha   103.09121421
_cell_angle_beta   103.10339514
_cell_angle_gamma   103.10813025
_symmetry_Int_Tables_number   1
_chemical_formula_structural   SrSnAs2
_chemical_formula_sum   'Sr6 Sn6 As12'
_cell_volume   741.26985798
_cell_formula_units_Z   6
loop_
 _symmetry_equiv_pos_site_id
 _symmetry_equiv_pos_as_xyz
  1  'x, y, z'
loop_
 _atom_site_type_symbol
 _atom_site_label
 _atom_site_symmetry_multiplicity
 _atom_site_fract_x
 _atom_site_fract_y
 _atom_site_fract_z
 _atom_site_occupancy
  Sr  Sr0  1  0.29092760  0.04074568  0.73518053  1
  Sr  Sr1  1  0.70907236  0.95925434  0.26481948  1
  Sr  Sr2  1  0.95925279  0.26482098  0.70907187  1
  Sr  Sr3  1  0.26481482  0.70908190  0.95925676  1
  Sr  Sr4  1  0.04074715  0.73517899  0.29092816  1
  Sr  Sr5  1  0.73518517  0.29091806  0.04074327  1
  Sn  Sn6  1  0.38463774  0.09438206  0.38581550  1
  Sn  Sn7  1  0.09434015  0.38582241  0.38459466  1
  Sn  Sn8  1  0.38579764  0.38464298  0.09426690  1
  Sn  Sn9  1  0.61536225  0.90561788  0.61418447  1
  Sn  Sn10  1  0.90565994  0.61417768  0.61540528  1
  Sn  Sn11  1  0.61420238  0.61535695  0.90573304  1
  As  As12  1  0.66763155  0.59765733  0.19151427  1
  As  As13  1  0.19159650  0.66765460  0.59765468  1
  As  As14  1  0.40236276  0.80837929  0.33234850  1
  As  As15  1  0.59763719  0.19162076  0.66765152  1
  As  As16  1  0.33236846  0.40234267  0.80848569  1
  As  As17  1  0.80840353  0.33234542  0.40234534  1
  As  As18  1  0.58180546  0.89318488  0.89100059  1
  As  As19  1  0.89102730  0.58180638  0.89313537  1
  As  As20  1  0.89315286  0.89102640  0.58179810  1
  As  As21  1  0.41819457  0.10681516  0.10899940  1
  As  As22  1  0.10897266  0.41819362  0.10686472  1
  As  As23  1  0.10684715  0.10897358  0.41820193  1
