# generated using pymatgen
data_SrTiSi
_symmetry_space_group_name_H-M   'P 1'
_cell_length_a   4.75019960
_cell_length_b   4.75019930
_cell_length_c   4.75019986
_cell_angle_alpha   59.99998693
_cell_angle_beta   59.99998564
_cell_angle_gamma   59.99999578
_symmetry_Int_Tables_number   1
_chemical_formula_structural   SrTiSi
_chemical_formula_sum   'Sr1 Ti1 Si1'
_cell_volume   75.79149454
_cell_formula_units_Z   1
loop_
 _symmetry_equiv_pos_site_id
 _symmetry_equiv_pos_as_xyz
  1  'x, y, z'
loop_
 _atom_site_type_symbol
 _atom_site_label
 _atom_site_symmetry_multiplicity
 _atom_site_fract_x
 _atom_site_fract_y
 _atom_site_fract_z
 _atom_site_occupancy
  Sr  Sr0  1  0.49999997  0.50000005  0.50000002  1
  Ti  Ti1  1  0.25000004  0.24999998  0.24999998  1
  Si  Si2  1  -0.00000001  -0.00000004  0.00000000  1
