# generated using pymatgen
data_TaBiC2
_symmetry_space_group_name_H-M   'P 1'
_cell_length_a   6.83541132
_cell_length_b   6.83827481
_cell_length_c   12.69728300
_cell_angle_alpha   80.22828249
_cell_angle_beta   80.10044059
_cell_angle_gamma   95.06249791
_symmetry_Int_Tables_number   1
_chemical_formula_structural   TaBiC2
_chemical_formula_sum   'Ta8 Bi8 C16'
_cell_volume   571.95240503
_cell_formula_units_Z   8
loop_
 _symmetry_equiv_pos_site_id
 _symmetry_equiv_pos_as_xyz
  1  'x, y, z'
loop_
 _atom_site_type_symbol
 _atom_site_label
 _atom_site_symmetry_multiplicity
 _atom_site_fract_x
 _atom_site_fract_y
 _atom_site_fract_z
 _atom_site_occupancy
  Ta  Ta0  1  0.24400731  0.07621161  0.14010194  1
  Ta  Ta1  1  0.78763116  0.42145938  0.84811025  1
  Ta  Ta2  1  0.92360990  0.75644956  0.35964112  1
  Ta  Ta3  1  0.57832359  0.21190179  0.65255407  1
  Ta  Ta4  1  0.75608017  0.92382758  0.85985447  1
  Ta  Ta5  1  0.07643123  0.24363643  0.64031499  1
  Ta  Ta6  1  0.42168649  0.78805126  0.34746685  1
  Ta  Ta7  1  0.21232313  0.57855311  0.15190824  1
  Bi  Bi8  1  0.82983158  0.25141014  0.11016976  1
  Bi  Bi9  1  0.75425509  0.73505839  0.13561244  1
  Bi  Bi10  1  0.24541869  0.26481636  0.86438843  1
  Bi  Bi11  1  0.26488204  0.24650676  0.36367904  1
  Bi  Bi12  1  0.74742469  0.16966440  0.39105975  1
  Bi  Bi13  1  0.17024323  0.74848807  0.88990735  1
  Bi  Bi14  1  0.25246437  0.83040392  0.60902050  1
  Bi  Bi15  1  0.73498824  0.75316907  0.63631916  1
  C  C16  1  0.97601969  0.02442491  0.25010191  1
  C  C17  1  0.21633677  0.84964701  0.05549348  1
  C  C18  1  0.15032260  0.78411121  0.44402670  1
  C  C19  1  0.05822084  0.44857592  0.74531984  1
  C  C20  1  0.84971666  0.21617393  0.55593306  1
  C  C21  1  0.20850723  0.35582177  0.05465358  1
  C  C22  1  0.78395256  0.15039462  0.94446350  1
  C  C23  1  0.79152025  0.64423803  0.94534490  1
  C  C24  1  0.57388471  0.42585976  0.75032970  1
  C  C25  1  0.35659489  0.20797542  0.55474515  1
  C  C26  1  0.44896429  0.05858995  0.24500430  1
  C  C27  1  0.55111986  0.94130345  0.75495060  1
  C  C28  1  0.02410229  0.97569481  0.74991023  1
  C  C29  1  0.42599470  0.57402193  0.24972860  1
  C  C30  1  0.94167458  0.55150970  0.25463260  1
  C  C31  1  0.64346717  0.79204975  0.44525350  1
