# generated using pymatgen
data_Tb2CeN3
_symmetry_space_group_name_H-M   'P 1'
_cell_length_a   8.00428568
_cell_length_b   8.00601543
_cell_length_c   8.00434805
_cell_angle_alpha   109.46421520
_cell_angle_beta   109.48308633
_cell_angle_gamma   109.46505946
_symmetry_Int_Tables_number   1
_chemical_formula_structural   Tb2CeN3
_chemical_formula_sum   'Tb8 Ce4 N12'
_cell_volume   394.86627072
_cell_formula_units_Z   4
loop_
 _symmetry_equiv_pos_site_id
 _symmetry_equiv_pos_as_xyz
  1  'x, y, z'
loop_
 _atom_site_type_symbol
 _atom_site_label
 _atom_site_symmetry_multiplicity
 _atom_site_fract_x
 _atom_site_fract_y
 _atom_site_fract_z
 _atom_site_occupancy
  Tb  Tb0  1  0.50000630  0.00002350  0.92986620  1
  Tb  Tb1  1  0.92984981  0.49999775  -0.00001673  1
  Tb  Tb2  1  0.50001846  -0.00001022  0.57014653  1
  Tb  Tb3  1  0.00002131  0.57012265  0.50001517  1
  Tb  Tb4  1  0.92987497  0.92985125  0.92988061  1
  Tb  Tb5  1  0.57013310  0.49997398  -0.00000588  1
  Tb  Tb6  1  0.57011468  0.57015416  0.57012485  1
  Tb  Tb7  1  -0.00001755  0.92988033  0.49998868  1
  Ce  Ce8  1  0.24999750  0.25000170  0.25000135  1
  Ce  Ce9  1  0.00000264  0.24999839  0.49999223  1
  Ce  Ce10  1  0.25000729  0.50000989  0.00001077  1
  Ce  Ce11  1  0.49999136  -0.00000281  0.24999628  1
  N  N12  1  0.24999034  0.17497499  0.92499200  1
  N  N13  1  0.17501159  0.92500533  0.25000808  1
  N  N14  1  0.92498902  0.24999532  0.17499406  1
  N  N15  1  0.17500932  0.75000683  0.92500471  1
  N  N16  1  0.57500090  0.74999478  0.32499214  1
  N  N17  1  0.32499970  0.24999882  0.57500253  1
  N  N18  1  0.92498027  0.17497806  0.74998558  1
  N  N19  1  0.57500859  0.32502378  0.25001154  1
  N  N20  1  0.75000375  0.92500245  0.17500090  1
  N  N21  1  0.24999418  0.57500223  0.32499649  1
  N  N22  1  0.75001339  0.32502050  0.57501654  1
  N  N23  1  0.32499907  0.57499635  0.74999536  1
