# generated using pymatgen
data_TbHoAs2
_symmetry_space_group_name_H-M   'P 1'
_cell_length_a   5.82169543
_cell_length_b   5.82169546
_cell_length_c   7.12549850
_cell_angle_alpha   114.02821608
_cell_angle_beta   114.02821760
_cell_angle_gamma   90.00925668
_symmetry_Int_Tables_number   1
_chemical_formula_structural   TbHoAs2
_chemical_formula_sum   'Tb2 Ho2 As4'
_cell_volume   197.43060570
_cell_formula_units_Z   2
loop_
 _symmetry_equiv_pos_site_id
 _symmetry_equiv_pos_as_xyz
  1  'x, y, z'
loop_
 _atom_site_type_symbol
 _atom_site_label
 _atom_site_symmetry_multiplicity
 _atom_site_fract_x
 _atom_site_fract_y
 _atom_site_fract_z
 _atom_site_occupancy
  Tb  Tb0  1  0.12525284  0.87474722  0.25000001  1
  Tb  Tb1  1  0.87474715  0.12525279  0.75000002  1
  Ho  Ho2  1  0.37553234  0.62446751  0.74999995  1
  Ho  Ho3  1  0.62446769  0.37553251  0.25000001  1
  As  As4  1  0.12508426  0.37551506  0.25192233  1
  As  As5  1  0.62448499  0.87491581  0.24807770  1
  As  As6  1  0.37551497  0.12508415  0.75192231  1
  As  As7  1  0.87491577  0.62448496  0.74807767  1
