# generated using pymatgen
data_TbP2Ru
_symmetry_space_group_name_H-M   'P 1'
_cell_length_a   3.96432070
_cell_length_b   4.74488813
_cell_length_c   9.04675811
_cell_angle_alpha   114.63687276
_cell_angle_beta   90.00037132
_cell_angle_gamma   89.99966044
_symmetry_Int_Tables_number   1
_chemical_formula_structural   TbP2Ru
_chemical_formula_sum   'Tb2 P4 Ru2'
_cell_volume   154.68077565
_cell_formula_units_Z   2
loop_
 _symmetry_equiv_pos_site_id
 _symmetry_equiv_pos_as_xyz
  1  'x, y, z'
loop_
 _atom_site_type_symbol
 _atom_site_label
 _atom_site_symmetry_multiplicity
 _atom_site_fract_x
 _atom_site_fract_y
 _atom_site_fract_z
 _atom_site_occupancy
  Tb  Tb0  1  0.00000073  -0.06381193  0.70101246  1
  Tb  Tb1  1  -0.00000067  0.06381204  0.29898794  1
  P  P2  1  0.50000182  0.42109615  0.72246638  1
  P  P3  1  -0.00000205  0.74790731  0.95797289  1
  P  P4  1  0.00000185  0.25209302  0.04202736  1
  P  P5  1  0.49999844  0.57890284  0.27753299  1
  Ru  Ru6  1  0.49999984  0.50000027  0.00000011  1
  Ru  Ru7  1  0.50000004  0.50000029  0.49999986  1
