# generated using pymatgen
data_TbP2Rh
_symmetry_space_group_name_H-M   'P 1'
_cell_length_a   3.91473245
_cell_length_b   8.89175673
_cell_length_c   6.28925079
_cell_angle_alpha   130.45024233
_cell_angle_beta   90.00008675
_cell_angle_gamma   89.99993999
_symmetry_Int_Tables_number   1
_chemical_formula_structural   TbP2Rh
_chemical_formula_sum   'Tb2 P4 Rh2'
_cell_volume   166.59268407
_cell_formula_units_Z   2
loop_
 _symmetry_equiv_pos_site_id
 _symmetry_equiv_pos_as_xyz
  1  'x, y, z'
loop_
 _atom_site_type_symbol
 _atom_site_label
 _atom_site_symmetry_multiplicity
 _atom_site_fract_x
 _atom_site_fract_y
 _atom_site_fract_z
 _atom_site_occupancy
  Tb  Tb0  1  0.50000003  0.50000006  0.00000003  1
  Tb  Tb1  1  -0.00000002  0.00000000  0.00000004  1
  P  P2  1  0.49999981  0.30054750  0.21053593  1
  P  P3  1  -0.00000038  0.28448919  0.59731575  1
  P  P4  1  0.00000043  0.71551081  0.40268432  1
  P  P5  1  0.50000014  0.69945248  0.78946394  1
  Rh  Rh6  1  0.00000004  -0.00000002  0.49999997  1
  Rh  Rh7  1  -0.00000005  0.49999997  0.50000003  1
