# generated using pymatgen
data_TbPH
_symmetry_space_group_name_H-M   'P 1'
_cell_length_a   4.02886212
_cell_length_b   4.02886216
_cell_length_c   4.02886215
_cell_angle_alpha   60.00000017
_cell_angle_beta   60.00000059
_cell_angle_gamma   60.00000023
_symmetry_Int_Tables_number   1
_chemical_formula_structural   TbPH
_chemical_formula_sum   'Tb1 P1 H1'
_cell_volume   46.24153340
_cell_formula_units_Z   1
loop_
 _symmetry_equiv_pos_site_id
 _symmetry_equiv_pos_as_xyz
  1  'x, y, z'
loop_
 _atom_site_type_symbol
 _atom_site_label
 _atom_site_symmetry_multiplicity
 _atom_site_fract_x
 _atom_site_fract_y
 _atom_site_fract_z
 _atom_site_occupancy
  Tb  Tb0  1  -0.00000001  0.00000000  0.00000000  1
  P  P1  1  0.50000001  0.50000000  0.50000000  1
  H  H2  1  0.25000000  0.25000000  0.24999999  1
