# generated using pymatgen
data_TbSb2Pt
_symmetry_space_group_name_H-M   'P 1'
_cell_length_a   4.19589405
_cell_length_b   4.19589444
_cell_length_c   6.58537393
_cell_angle_alpha   90.00015043
_cell_angle_beta   89.99984573
_cell_angle_gamma   120.00010860
_symmetry_Int_Tables_number   1
_chemical_formula_structural   TbSb2Pt
_chemical_formula_sum   'Tb1 Sb2 Pt1'
_cell_volume   100.40599946
_cell_formula_units_Z   1
loop_
 _symmetry_equiv_pos_site_id
 _symmetry_equiv_pos_as_xyz
  1  'x, y, z'
loop_
 _atom_site_type_symbol
 _atom_site_label
 _atom_site_symmetry_multiplicity
 _atom_site_fract_x
 _atom_site_fract_y
 _atom_site_fract_z
 _atom_site_occupancy
  Tb  Tb0  1  0.00000000  0.00000000  0.50000000  1
  Sb  Sb1  1  0.33333368  0.66666634  0.19692042  1
  Sb  Sb2  1  0.66666632  0.33333365  0.80307958  1
  Pt  Pt3  1  -0.00000000  -0.00000000  0.00000000  1
