# generated using pymatgen
data_TbSb3As2
_symmetry_space_group_name_H-M   'P 1'
_cell_length_a   9.44354047
_cell_length_b   9.44354031
_cell_length_c   9.44354015
_cell_angle_alpha   109.47121747
_cell_angle_beta   109.47121516
_cell_angle_gamma   109.47121906
_symmetry_Int_Tables_number   1
_chemical_formula_structural   TbSb3As2
_chemical_formula_sum   'Tb4 Sb12 As8'
_cell_volume   648.30993864
_cell_formula_units_Z   4
loop_
 _symmetry_equiv_pos_site_id
 _symmetry_equiv_pos_as_xyz
  1  'x, y, z'
loop_
 _atom_site_type_symbol
 _atom_site_label
 _atom_site_symmetry_multiplicity
 _atom_site_fract_x
 _atom_site_fract_y
 _atom_site_fract_z
 _atom_site_occupancy
  Tb  Tb0  1  0.25000000  0.24999999  0.24999999  1
  Tb  Tb1  1  0.00000000  0.24999999  0.50000000  1
  Tb  Tb2  1  0.25000001  0.50000001  0.00000001  1
  Tb  Tb3  1  0.49999999  0.00000000  0.25000000  1
  Sb  Sb4  1  0.25000000  0.13177699  0.88177700  1
  Sb  Sb5  1  0.13177701  0.88177700  0.25000000  1
  Sb  Sb6  1  0.88177699  0.25000001  0.13177700  1
  Sb  Sb7  1  0.13177700  0.75000000  0.88177700  1
  Sb  Sb8  1  0.61822300  0.74999999  0.36822299  1
  Sb  Sb9  1  0.36822299  0.24999998  0.61822300  1
  Sb  Sb10  1  0.88177701  0.13177700  0.75000001  1
  Sb  Sb11  1  0.61822301  0.36822301  0.25000000  1
  Sb  Sb12  1  0.75000000  0.88177699  0.13177700  1
  Sb  Sb13  1  0.25000000  0.61822301  0.36822300  1
  Sb  Sb14  1  0.75000000  0.36822300  0.61822301  1
  Sb  Sb15  1  0.36822300  0.61822300  0.75000000  1
  As  As16  1  0.50000006  0.00000006  0.94099490  1
  As  As17  1  0.94099485  0.50000002  -0.00000000  1
  As  As18  1  0.49999997  -0.00000004  0.55900512  1
  As  As19  1  -0.00000003  0.55900514  0.49999999  1
  As  As20  1  0.94099480  0.94099479  0.94099479  1
  As  As21  1  0.55900514  0.49999999  -0.00000001  1
  As  As22  1  0.55900521  0.55900520  0.55900520  1
  As  As23  1  0.00000002  0.94099486  0.50000001  1
