# generated using pymatgen
data_TbSeCl2
_symmetry_space_group_name_H-M   'P 1'
_cell_length_a   4.85171079
_cell_length_b   4.85263108
_cell_length_c   11.51073630
_cell_angle_alpha   90.03168735
_cell_angle_beta   89.99486123
_cell_angle_gamma   119.99241203
_symmetry_Int_Tables_number   1
_chemical_formula_structural   TbSeCl2
_chemical_formula_sum   'Tb2 Se2 Cl4'
_cell_volume   234.71402510
_cell_formula_units_Z   2
loop_
 _symmetry_equiv_pos_site_id
 _symmetry_equiv_pos_as_xyz
  1  'x, y, z'
loop_
 _atom_site_type_symbol
 _atom_site_label
 _atom_site_symmetry_multiplicity
 _atom_site_fract_x
 _atom_site_fract_y
 _atom_site_fract_z
 _atom_site_occupancy
  Tb  Tb0  1  0.33334989  0.66671469  0.80333184  1
  Tb  Tb1  1  0.66665012  0.33328533  0.19666969  1
  Se  Se2  1  0.33326989  0.66650196  0.06364641  1
  Se  Se3  1  0.66673011  0.33349804  0.93635827  1
  Cl  Cl4  1  0.66666636  0.33333218  0.40717873  1
  Cl  Cl5  1  0.33333364  0.66666782  0.59281498  1
  Cl  Cl6  1  0.00002644  0.00006450  0.77841387  1
  Cl  Cl7  1  -0.00002645  -0.00006453  0.22158621  1
