# generated using pymatgen
data_TbSi2Mo
_symmetry_space_group_name_H-M   'P 1'
_cell_length_a   8.18287786
_cell_length_b   8.18100721
_cell_length_c   8.18080765
_cell_angle_alpha   104.95537159
_cell_angle_beta   104.95314476
_cell_angle_gamma   104.94979952
_symmetry_Int_Tables_number   1
_chemical_formula_structural   TbSi2Mo
_chemical_formula_sum   'Tb6 Si12 Mo6'
_cell_volume   479.29155963
_cell_formula_units_Z   6
loop_
 _symmetry_equiv_pos_site_id
 _symmetry_equiv_pos_as_xyz
  1  'x, y, z'
loop_
 _atom_site_type_symbol
 _atom_site_label
 _atom_site_symmetry_multiplicity
 _atom_site_fract_x
 _atom_site_fract_y
 _atom_site_fract_z
 _atom_site_occupancy
  Tb  Tb0  1  0.34014595  0.79277495  0.95936660  1
  Tb  Tb1  1  0.79278447  0.95937656  0.34014679  1
  Tb  Tb2  1  0.95938024  0.34015082  0.79278333  1
  Tb  Tb3  1  0.65985504  0.20722243  0.04062983  1
  Tb  Tb4  1  0.20721458  0.04062061  0.65985459  1
  Tb  Tb5  1  0.04061933  0.65984788  0.20721477  1
  Si  Si6  1  0.14658574  0.07356838  0.29511127  1
  Si  Si7  1  0.07355396  0.29511269  0.14661287  1
  Si  Si8  1  0.29512679  0.14660597  0.07356518  1
  Si  Si9  1  0.85340873  0.92643124  0.70488653  1
  Si  Si10  1  0.92644388  0.70488380  0.85338316  1
  Si  Si11  1  0.70487211  0.85339481  0.92643333  1
  Si  Si12  1  0.76522453  0.31909019  0.43081858  1
  Si  Si13  1  0.31905199  0.43080698  0.76522064  1
  Si  Si14  1  0.56917194  0.23476556  0.68091727  1
  Si  Si15  1  0.23478526  0.68091915  0.56918265  1
  Si  Si16  1  0.68095296  0.56919397  0.23478506  1
  Si  Si17  1  0.43083034  0.76523737  0.31908833  1
  Mo  Mo18  1  0.08376974  0.35157025  0.46212115  1
  Mo  Mo19  1  0.53786731  0.91628453  0.64841494  1
  Mo  Mo20  1  0.91622778  0.64842697  0.53787784  1
  Mo  Mo21  1  0.35154800  0.46212429  0.08371255  1
  Mo  Mo22  1  0.46212996  0.08371523  0.35158604  1
  Mo  Mo23  1  0.64844938  0.53787535  0.91628671  1
