# generated using pymatgen
data_TeMo2S3
_symmetry_space_group_name_H-M   'P 1'
_cell_length_a   8.32984222
_cell_length_b   8.33018715
_cell_length_c   8.33017490
_cell_angle_alpha   109.47226153
_cell_angle_beta   109.47064647
_cell_angle_gamma   109.47065401
_symmetry_Int_Tables_number   1
_chemical_formula_structural   TeMo2S3
_chemical_formula_sum   'Te4 Mo8 S12'
_cell_volume   444.96340876
_cell_formula_units_Z   4
loop_
 _symmetry_equiv_pos_site_id
 _symmetry_equiv_pos_as_xyz
  1  'x, y, z'
loop_
 _atom_site_type_symbol
 _atom_site_label
 _atom_site_symmetry_multiplicity
 _atom_site_fract_x
 _atom_site_fract_y
 _atom_site_fract_z
 _atom_site_occupancy
  Te  Te0  1  0.25001013  0.25000855  0.25001390  1
  Te  Te1  1  -0.00000339  0.24998980  0.49999669  1
  Te  Te2  1  0.24999323  0.49999991  -0.00000053  1
  Te  Te3  1  0.50000288  0.00000426  0.24998980  1
  Mo  Mo4  1  0.50000124  -0.00000823  0.93401063  1
  Mo  Mo5  1  0.56598969  0.50000108  0.00000307  1
  Mo  Mo6  1  0.93400713  0.93402031  0.93401068  1
  Mo  Mo7  1  0.00000109  0.56598960  0.50001048  1
  Mo  Mo8  1  0.49998866  -0.00000515  0.56597990  1
  Mo  Mo9  1  0.93401320  0.49999834  -0.00000026  1
  Mo  Mo10  1  0.00000925  0.93401697  0.50000185  1
  Mo  Mo11  1  0.56599276  0.56598616  0.56597947  1
  S  S12  1  0.66757478  0.75000126  0.41757117  1
  S  S13  1  0.25000163  0.66758383  0.41758656  1
  S  S14  1  0.74999779  0.83241646  0.08241224  1
  S  S15  1  0.66758377  0.41758443  0.25000273  1
  S  S16  1  0.83240981  0.08241461  0.74999734  1
  S  S17  1  0.41758339  0.24999683  0.66758474  1
  S  S18  1  0.41757037  0.66756696  0.74999622  1
  S  S19  1  0.24999865  0.08242701  0.83242870  1
  S  S20  1  0.08242555  0.83242279  0.24999949  1
  S  S21  1  0.75000297  0.41757570  0.66757719  1
  S  S22  1  0.83242809  0.25000385  0.08242745  1
  S  S23  1  0.08241733  0.75000468  0.83242051  1
