# generated using pymatgen
data_TeRuC2
_symmetry_space_group_name_H-M   'P 1'
_cell_length_a   5.06089489
_cell_length_b   5.86439175
_cell_length_c   5.86445209
_cell_angle_alpha   103.17834298
_cell_angle_beta   115.38196977
_cell_angle_gamma   115.38021733
_symmetry_Int_Tables_number   1
_chemical_formula_structural   TeRuC2
_chemical_formula_sum   'Te2 Ru2 C4'
_cell_volume   122.67728159
_cell_formula_units_Z   2
loop_
 _symmetry_equiv_pos_site_id
 _symmetry_equiv_pos_as_xyz
  1  'x, y, z'
loop_
 _atom_site_type_symbol
 _atom_site_label
 _atom_site_symmetry_multiplicity
 _atom_site_fract_x
 _atom_site_fract_y
 _atom_site_fract_z
 _atom_site_occupancy
  Te  Te0  1  0.24999452  0.63014205  0.36985767  1
  Te  Te1  1  0.75000549  0.36985777  0.63014252  1
  Ru  Ru2  1  0.75000614  0.88588204  0.11412410  1
  Ru  Ru3  1  0.24999385  0.11412170  0.88587215  1
  C  C4  1  0.21354298  0.21365680  0.21472603  1
  C  C5  1  0.28645907  0.78527368  0.78634556  1
  C  C6  1  0.71354348  0.21472452  0.21365619  1
  C  C7  1  0.78645448  0.78634144  0.78527578  1
