# generated using pymatgen
data_TeRuC
_symmetry_space_group_name_H-M   'P 1'
_cell_length_a   4.03510287
_cell_length_b   4.03510233
_cell_length_c   4.03510282
_cell_angle_alpha   59.99999207
_cell_angle_beta   59.99998949
_cell_angle_gamma   60.00000271
_symmetry_Int_Tables_number   1
_chemical_formula_structural   TeRuC
_chemical_formula_sum   'Te1 Ru1 C1'
_cell_volume   46.45673893
_cell_formula_units_Z   1
loop_
 _symmetry_equiv_pos_site_id
 _symmetry_equiv_pos_as_xyz
  1  'x, y, z'
loop_
 _atom_site_type_symbol
 _atom_site_label
 _atom_site_symmetry_multiplicity
 _atom_site_fract_x
 _atom_site_fract_y
 _atom_site_fract_z
 _atom_site_occupancy
  Te  Te0  1  0.50000001  0.49999998  0.50000000  1
  Ru  Ru1  1  -0.00000000  0.00000002  -0.00000000  1
  C  C2  1  0.74999999  0.75000000  0.75000000  1
