# generated using pymatgen
data_Ti2AsI
_symmetry_space_group_name_H-M   'P 1'
_cell_length_a   4.68286393
_cell_length_b   5.68861084
_cell_length_c   7.87516752
_cell_angle_alpha   79.01235855
_cell_angle_beta   89.99999900
_cell_angle_gamma   89.99999994
_symmetry_Int_Tables_number   1
_chemical_formula_structural   Ti2AsI
_chemical_formula_sum   'Ti4 As2 I2'
_cell_volume   205.94077321
_cell_formula_units_Z   2
loop_
 _symmetry_equiv_pos_site_id
 _symmetry_equiv_pos_as_xyz
  1  'x, y, z'
loop_
 _atom_site_type_symbol
 _atom_site_label
 _atom_site_symmetry_multiplicity
 _atom_site_fract_x
 _atom_site_fract_y
 _atom_site_fract_z
 _atom_site_occupancy
  Ti  Ti0  1  0.50000001  0.12291399  0.79890109  1
  Ti  Ti1  1  0.00000001  0.77410956  0.01327614  1
  Ti  Ti2  1  0.00000001  0.22589053  -0.01330678  1
  Ti  Ti3  1  0.50000000  0.87713602  0.20111388  1
  As  As4  1  0.00000000  0.02693655  0.71282523  1
  As  As5  1  -0.00000001  -0.02697775  0.28721856  1
  I  I6  1  0.49999997  0.49997453  -0.00002638  1
  I  I7  1  0.50000000  0.50001656  0.49999825  1
