# generated using pymatgen
data_Ti2PdSe3
_symmetry_space_group_name_H-M   'P 1'
_cell_length_a   8.40737873
_cell_length_b   8.40725182
_cell_length_c   8.40727618
_cell_angle_alpha   109.47072010
_cell_angle_beta   109.47145450
_cell_angle_gamma   109.47108591
_symmetry_Int_Tables_number   1
_chemical_formula_structural   Ti2PdSe3
_chemical_formula_sum   'Ti8 Pd4 Se12'
_cell_volume   457.45696338
_cell_formula_units_Z   4
loop_
 _symmetry_equiv_pos_site_id
 _symmetry_equiv_pos_as_xyz
  1  'x, y, z'
loop_
 _atom_site_type_symbol
 _atom_site_label
 _atom_site_symmetry_multiplicity
 _atom_site_fract_x
 _atom_site_fract_y
 _atom_site_fract_z
 _atom_site_occupancy
  Ti  Ti0  1  0.94228850  0.49999996  0.00000164  1
  Ti  Ti1  1  0.55770002  0.49999740  -0.00000324  1
  Ti  Ti2  1  0.49999775  -0.00000166  0.55771133  1
  Ti  Ti3  1  0.50000002  0.00000423  0.94228680  1
  Ti  Ti4  1  0.55770796  0.55771283  0.55771543  1
  Ti  Ti5  1  0.94228382  0.94228647  0.94228665  1
  Ti  Ti6  1  -0.00000060  0.55770948  0.50000201  1
  Ti  Ti7  1  -0.00000323  0.94228821  0.50000120  1
  Pd  Pd8  1  0.50000395  0.00000231  0.25000324  1
  Pd  Pd9  1  0.25000941  0.49999904  -0.00000166  1
  Pd  Pd10  1  0.24999739  0.24999666  0.24999677  1
  Pd  Pd11  1  0.00000021  0.25000141  0.49999950  1
  Se  Se12  1  0.87624751  0.24999948  0.12624251  1
  Se  Se13  1  0.87623639  0.12623575  0.75000099  1
  Se  Se14  1  0.62377208  0.37377043  0.24999881  1
  Se  Se15  1  0.74999998  0.37375949  0.62375554  1
  Se  Se16  1  0.75000172  0.87621994  0.12623148  1
  Se  Se17  1  0.62375850  0.75000385  0.37376448  1
  Se  Se18  1  0.37377383  0.25000944  0.62377561  1
  Se  Se19  1  0.24999195  0.62375706  0.37375743  1
  Se  Se20  1  0.24999078  0.12623861  0.87623469  1
  Se  Se21  1  0.12625149  0.87624970  0.25000586  1
  Se  Se22  1  0.37375961  0.62376024  0.74999414  1
  Se  Se23  1  0.12623095  0.74999968  0.87623881  1
