# generated using pymatgen
data_TiMnP2
_symmetry_space_group_name_H-M   'P 1'
_cell_length_a   7.54323331
_cell_length_b   7.54319809
_cell_length_c   7.54330917
_cell_angle_alpha   106.66034441
_cell_angle_beta   106.66333410
_cell_angle_gamma   106.66313534
_symmetry_Int_Tables_number   1
_chemical_formula_structural   TiMnP2
_chemical_formula_sum   'Ti6 Mn6 P12'
_cell_volume   360.69693096
_cell_formula_units_Z   6
loop_
 _symmetry_equiv_pos_site_id
 _symmetry_equiv_pos_as_xyz
  1  'x, y, z'
loop_
 _atom_site_type_symbol
 _atom_site_label
 _atom_site_symmetry_multiplicity
 _atom_site_fract_x
 _atom_site_fract_y
 _atom_site_fract_z
 _atom_site_occupancy
  Ti  Ti0  1  0.22627277  0.06330111  0.68783657  1
  Ti  Ti1  1  0.77372855  0.93670333  0.31215910  1
  Ti  Ti2  1  0.93670723  0.31216146  0.77372168  1
  Ti  Ti3  1  0.31216181  0.77374008  0.93672549  1
  Ti  Ti4  1  0.06329743  0.68783765  0.22627838  1
  Ti  Ti5  1  0.68783937  0.22626087  0.06328040  1
  Mn  Mn6  1  0.44060205  0.07895456  0.35400491  1
  Mn  Mn7  1  0.07894954  0.35399412  0.44059463  1
  Mn  Mn8  1  0.35399406  0.44059488  0.07895233  1
  Mn  Mn9  1  0.55939645  0.92104154  0.64599029  1
  Mn  Mn10  1  0.92105240  0.64600667  0.55940191  1
  Mn  Mn11  1  0.64600292  0.55940425  0.92104397  1
  P  P12  1  0.71035383  0.57272127  0.23530748  1
  P  P13  1  0.23529758  0.71035145  0.57273790  1
  P  P14  1  0.42727056  0.76470073  0.28964879  1
  P  P15  1  0.57272931  0.23530175  0.71035316  1
  P  P16  1  0.28964592  0.42728169  0.76469961  1
  P  P17  1  0.76469786  0.28964513  0.42726081  1
  P  P18  1  0.66244087  0.87308697  0.93989953  1
  P  P19  1  0.93989473  0.66244686  0.87310348  1
  P  P20  1  0.87309614  0.93989931  0.66244573  1
  P  P21  1  0.33755972  0.12691091  0.06010314  1
  P  P22  1  0.06010242  0.33755130  0.12690069  1
  P  P23  1  0.12690647  0.06010213  0.33755004  1
