# generated using pymatgen
data_TiWS2
_symmetry_space_group_name_H-M   'P 1'
_cell_length_a   3.21533930
_cell_length_b   3.21534064
_cell_length_c   6.49559124
_cell_angle_alpha   89.99999391
_cell_angle_beta   90.00000115
_cell_angle_gamma   119.99987536
_symmetry_Int_Tables_number   1
_chemical_formula_structural   TiWS2
_chemical_formula_sum   'Ti1 W1 S2'
_cell_volume   58.15722334
_cell_formula_units_Z   1
loop_
 _symmetry_equiv_pos_site_id
 _symmetry_equiv_pos_as_xyz
  1  'x, y, z'
loop_
 _atom_site_type_symbol
 _atom_site_label
 _atom_site_symmetry_multiplicity
 _atom_site_fract_x
 _atom_site_fract_y
 _atom_site_fract_z
 _atom_site_occupancy
  Ti  Ti0  1  -0.00000001  -0.00000000  -0.00000001  1
  W  W1  1  0.00000001  -0.00000000  0.50000001  1
  S  S2  1  0.33333321  0.66666652  0.24653581  1
  S  S3  1  0.66666679  0.33333349  0.75346419  1
