# generated using pymatgen
data_TiZnN2
_symmetry_space_group_name_H-M   'P 1'
_cell_length_a   5.33389797
_cell_length_b   5.40538967
_cell_length_c   6.72904707
_cell_angle_alpha   104.64894031
_cell_angle_beta   104.22106931
_cell_angle_gamma   112.03482404
_symmetry_Int_Tables_number   1
_chemical_formula_structural   TiZnN2
_chemical_formula_sum   'Ti4 Zn4 N8'
_cell_volume   160.96136423
_cell_formula_units_Z   4
loop_
 _symmetry_equiv_pos_site_id
 _symmetry_equiv_pos_as_xyz
  1  'x, y, z'
loop_
 _atom_site_type_symbol
 _atom_site_label
 _atom_site_symmetry_multiplicity
 _atom_site_fract_x
 _atom_site_fract_y
 _atom_site_fract_z
 _atom_site_occupancy
  Ti  Ti0  1  0.44024930  0.18994877  0.87997414  1
  Ti  Ti1  1  0.18443210  0.93431306  0.36953090  1
  Ti  Ti2  1  0.55975487  0.81004347  0.12002701  1
  Ti  Ti3  1  0.81559041  0.06569881  0.63047040  1
  Zn  Zn4  1  0.30988947  0.55973529  0.61953175  1
  Zn  Zn5  1  0.69011302  0.44026609  0.38046846  1
  Zn  Zn6  1  0.06544549  0.31531674  0.13080749  1
  Zn  Zn7  1  0.93455243  0.68468262  0.86919275  1
  N  N8  1  0.06077637  0.84218183  0.62550967  1
  N  N9  1  0.56475349  0.28343745  0.62552699  1
  N  N10  1  0.93921792  0.15781849  0.37449181  1
  N  N11  1  0.43523887  0.71656113  0.37447108  1
  N  N12  1  0.79675782  0.57750834  0.12517729  1
  N  N13  1  0.67147020  0.95232419  0.87485174  1
  N  N14  1  0.20323409  0.42248880  0.87482061  1
  N  N15  1  0.32852416  0.04767493  0.12514990  1
