# generated using pymatgen
data_Tl2AgCl3
_symmetry_space_group_name_H-M   'P 1'
_cell_length_a   9.60724347
_cell_length_b   9.60724462
_cell_length_c   9.60725163
_cell_angle_alpha   109.47177027
_cell_angle_beta   109.47175319
_cell_angle_gamma   109.47171250
_symmetry_Int_Tables_number   1
_chemical_formula_structural   Tl2AgCl3
_chemical_formula_sum   'Tl8 Ag4 Cl12'
_cell_volume   682.60031362
_cell_formula_units_Z   4
loop_
 _symmetry_equiv_pos_site_id
 _symmetry_equiv_pos_as_xyz
  1  'x, y, z'
loop_
 _atom_site_type_symbol
 _atom_site_label
 _atom_site_symmetry_multiplicity
 _atom_site_fract_x
 _atom_site_fract_y
 _atom_site_fract_z
 _atom_site_occupancy
  Tl  Tl0  1  0.93572100  0.50000174  0.00000128  1
  Tl  Tl1  1  0.56427918  0.49999939  -0.00000186  1
  Tl  Tl2  1  0.50000052  -0.00000036  0.56428000  1
  Tl  Tl3  1  0.50000036  -0.00000058  0.93571996  1
  Tl  Tl4  1  0.56428139  0.56428131  0.56428116  1
  Tl  Tl5  1  0.93571865  0.93571862  0.93571876  1
  Tl  Tl6  1  -0.00000168  0.56427898  0.49999881  1
  Tl  Tl7  1  0.00000056  0.93572079  0.50000178  1
  Ag  Ag8  1  0.49999851  0.00000160  0.25000001  1
  Ag  Ag9  1  0.25000014  0.49999861  0.00000177  1
  Ag  Ag10  1  0.25000000  0.24999992  0.24999989  1
  Ag  Ag11  1  0.00000142  0.24999984  0.49999813  1
  Cl  Cl12  1  0.91681420  0.24999839  0.16681149  1
  Cl  Cl13  1  0.91681815  0.16681945  0.75000299  1
  Cl  Cl14  1  0.58318565  0.33318846  0.25000160  1
  Cl  Cl15  1  0.74999736  0.33318063  0.58318179  1
  Cl  Cl16  1  0.75000262  0.91681811  0.16681950  1
  Cl  Cl17  1  0.58318179  0.74999727  0.33318045  1
  Cl  Cl18  1  0.33318869  0.25000155  0.58318630  1
  Cl  Cl19  1  0.25000164  0.58318598  0.33318867  1
  Cl  Cl20  1  0.24999833  0.16681119  0.91681379  1
  Cl  Cl21  1  0.16681145  0.91681449  0.24999839  1
  Cl  Cl22  1  0.33318078  0.58318214  0.74999721  1
  Cl  Cl23  1  0.16681930  0.75000249  0.91681811  1
