# generated using pymatgen
data_Tl2RuSe3
_symmetry_space_group_name_H-M   'P 1'
_cell_length_a   9.60063282
_cell_length_b   9.60074755
_cell_length_c   9.60072509
_cell_angle_alpha   109.47162800
_cell_angle_beta   109.47117194
_cell_angle_gamma   109.47123935
_symmetry_Int_Tables_number   1
_chemical_formula_structural   Tl2RuSe3
_chemical_formula_sum   'Tl8 Ru4 Se12'
_cell_volume   681.21629996
_cell_formula_units_Z   4
loop_
 _symmetry_equiv_pos_site_id
 _symmetry_equiv_pos_as_xyz
  1  'x, y, z'
loop_
 _atom_site_type_symbol
 _atom_site_label
 _atom_site_symmetry_multiplicity
 _atom_site_fract_x
 _atom_site_fract_y
 _atom_site_fract_z
 _atom_site_occupancy
  Tl  Tl0  1  0.49999973  -0.00000064  0.93390680  1
  Tl  Tl1  1  0.56609330  0.50000057  0.00000033  1
  Tl  Tl2  1  0.93390864  0.93390894  0.93390868  1
  Tl  Tl3  1  -0.00000070  0.56609104  0.50000010  1
  Tl  Tl4  1  0.50000047  0.00000045  0.56609324  1
  Tl  Tl5  1  0.93390686  0.49999994  -0.00000034  1
  Tl  Tl6  1  0.00000024  0.93390882  0.49999990  1
  Tl  Tl7  1  0.56609151  0.56609092  0.56609137  1
  Ru  Ru8  1  0.24999988  0.25000064  0.24999945  1
  Ru  Ru9  1  0.00000119  0.25000058  0.50000060  1
  Ru  Ru10  1  0.24999983  0.49999916  0.00000034  1
  Ru  Ru11  1  0.49999911  -0.00000037  0.24999961  1
  Se  Se12  1  0.52573704  0.75000266  0.27573684  1
  Se  Se13  1  0.24999992  0.52573367  0.27573541  1
  Se  Se14  1  0.75000021  0.97426359  0.22426318  1
  Se  Se15  1  0.52573735  0.27573329  0.24999952  1
  Se  Se16  1  0.97426394  0.22426506  0.75000027  1
  Se  Se17  1  0.27573591  0.24999981  0.52573517  1
  Se  Se18  1  0.27573578  0.52573559  0.75000013  1
  Se  Se19  1  0.25000091  0.22426719  0.97426459  1
  Se  Se20  1  0.22426353  0.97426562  0.25000029  1
  Se  Se21  1  0.74999825  0.27573549  0.52573616  1
  Se  Se22  1  0.97426353  0.24999951  0.22426467  1
  Se  Se23  1  0.22426358  0.74999847  0.97426368  1
