# generated using pymatgen
data_Tl3AgS2
_symmetry_space_group_name_H-M   'P 1'
_cell_length_a   9.98148475
_cell_length_b   9.98148494
_cell_length_c   9.98148540
_cell_angle_alpha   109.47129602
_cell_angle_beta   109.47129818
_cell_angle_gamma   109.47129220
_symmetry_Int_Tables_number   1
_chemical_formula_structural   Tl3AgS2
_chemical_formula_sum   'Tl12 Ag4 S8'
_cell_volume   765.53030044
_cell_formula_units_Z   4
loop_
 _symmetry_equiv_pos_site_id
 _symmetry_equiv_pos_as_xyz
  1  'x, y, z'
loop_
 _atom_site_type_symbol
 _atom_site_label
 _atom_site_symmetry_multiplicity
 _atom_site_fract_x
 _atom_site_fract_y
 _atom_site_fract_z
 _atom_site_occupancy
  Tl  Tl0  1  0.24999968  0.12126235  0.87126227  1
  Tl  Tl1  1  0.12126237  0.87126228  0.24999970  1
  Tl  Tl2  1  0.87126225  0.24999967  0.12126234  1
  Tl  Tl3  1  0.12126233  0.75000003  0.87126243  1
  Tl  Tl4  1  0.62873755  0.74999997  0.37873764  1
  Tl  Tl5  1  0.37873764  0.25000032  0.62873772  1
  Tl  Tl6  1  0.87126246  0.12126236  0.75000005  1
  Tl  Tl7  1  0.62873771  0.37873763  0.25000030  1
  Tl  Tl8  1  0.75000003  0.87126244  0.12126235  1
  Tl  Tl9  1  0.25000034  0.62873775  0.37873768  1
  Tl  Tl10  1  0.74999997  0.37873768  0.62873757  1
  Tl  Tl11  1  0.37873766  0.62873755  0.74999996  1
  Ag  Ag12  1  0.25000000  0.25000000  0.25000000  1
  Ag  Ag13  1  -0.00000008  0.25000000  0.50000006  1
  Ag  Ag14  1  0.25000001  0.50000007  -0.00000007  1
  Ag  Ag15  1  0.50000008  -0.00000005  0.25000001  1
  S  S16  1  0.49999995  -0.00000006  0.01386130  1
  S  S17  1  0.01386139  0.50000007  0.00000010  1
  S  S18  1  0.50000007  0.00000005  0.48613871  1
  S  S19  1  -0.00000007  0.48613861  0.49999989  1
  S  S20  1  0.01385986  0.01385982  0.01385987  1
  S  S21  1  0.48613861  0.49999997  -0.00000008  1
  S  S22  1  0.48614016  0.48614015  0.48614014  1
  S  S23  1  0.00000003  0.01386136  0.50000008  1
