# generated using pymatgen
data_Tl3MoP3
_symmetry_space_group_name_H-M   'P 1'
_cell_length_a   8.31833205
_cell_length_b   7.48684008
_cell_length_c   7.48682457
_cell_angle_alpha   107.11263040
_cell_angle_beta   111.73796668
_cell_angle_gamma   111.73788752
_symmetry_Int_Tables_number   1
_chemical_formula_structural   Tl3MoP3
_chemical_formula_sum   'Tl6 Mo2 P6'
_cell_volume   348.40832907
_cell_formula_units_Z   2
loop_
 _symmetry_equiv_pos_site_id
 _symmetry_equiv_pos_as_xyz
  1  'x, y, z'
loop_
 _atom_site_type_symbol
 _atom_site_label
 _atom_site_symmetry_multiplicity
 _atom_site_fract_x
 _atom_site_fract_y
 _atom_site_fract_z
 _atom_site_occupancy
  Tl  Tl0  1  0.33736745  0.64476132  0.62873155  1
  Tl  Tl1  1  0.83737200  0.12873698  0.14475795  1
  Tl  Tl2  1  0.70863774  0.87127025  0.51602722  1
  Tl  Tl3  1  0.20863568  0.01601792  0.37126364  1
  Tl  Tl4  1  0.19260747  -0.01603282  0.85523904  1
  Tl  Tl5  1  0.69261229  0.35523983  0.48397331  1
  Mo  Mo6  1  0.43993233  0.49999536  0.00001096  1
  Mo  Mo7  1  0.93992777  0.50001009  -0.00000428  1
  P  P8  1  0.56933826  0.27425976  0.86228293  1
  P  P9  1  0.20704184  0.41197959  0.13772310  1
  P  P10  1  0.29507180  -0.27425166  0.08802166  1
  P  P11  1  -0.20491724  0.58802489  0.22574334  1
  P  P12  1  0.70704904  0.63771447  0.91197720  1
  P  P13  1  0.06932157  0.36227401  0.77425239  1
