# generated using pymatgen
data_TlP2W
_symmetry_space_group_name_H-M   'P 1'
_cell_length_a   3.31686524
_cell_length_b   3.31686520
_cell_length_c   8.37238144
_cell_angle_alpha   89.99999738
_cell_angle_beta   90.00000337
_cell_angle_gamma   120.00000854
_symmetry_Int_Tables_number   1
_chemical_formula_structural   TlP2W
_chemical_formula_sum   'Tl1 P2 W1'
_cell_volume   79.76920231
_cell_formula_units_Z   1
loop_
 _symmetry_equiv_pos_site_id
 _symmetry_equiv_pos_as_xyz
  1  'x, y, z'
loop_
 _atom_site_type_symbol
 _atom_site_label
 _atom_site_symmetry_multiplicity
 _atom_site_fract_x
 _atom_site_fract_y
 _atom_site_fract_z
 _atom_site_occupancy
  Tl  Tl0  1  0.00000001  0.00000001  0.50000000  1
  P  P1  1  0.33333333  0.66666668  0.18571529  1
  P  P2  1  0.66666666  0.33333331  0.81428471  1
  W  W3  1  -0.00000001  -0.00000000  -0.00000000  1
