# generated using pymatgen
data_TlRh2N3
_symmetry_space_group_name_H-M   'P 1'
_cell_length_a   7.59253265
_cell_length_b   7.59251620
_cell_length_c   7.59260124
_cell_angle_alpha   109.47077687
_cell_angle_beta   109.47055898
_cell_angle_gamma   109.47231897
_symmetry_Int_Tables_number   1
_chemical_formula_structural   TlRh2N3
_chemical_formula_sum   'Tl4 Rh8 N12'
_cell_volume   336.93112657
_cell_formula_units_Z   4
loop_
 _symmetry_equiv_pos_site_id
 _symmetry_equiv_pos_as_xyz
  1  'x, y, z'
loop_
 _atom_site_type_symbol
 _atom_site_label
 _atom_site_symmetry_multiplicity
 _atom_site_fract_x
 _atom_site_fract_y
 _atom_site_fract_z
 _atom_site_occupancy
  Tl  Tl0  1  0.25000288  0.25000218  0.24999859  1
  Tl  Tl1  1  0.00000266  0.24999894  0.50000415  1
  Tl  Tl2  1  0.24999799  0.49999985  0.00000012  1
  Tl  Tl3  1  0.49999711  -0.00000254  0.24999404  1
  Rh  Rh4  1  0.49999342  -0.00000901  0.91029770  1
  Rh  Rh5  1  0.58970001  0.50000046  0.00000265  1
  Rh  Rh6  1  0.91028740  0.91029288  0.91028334  1
  Rh  Rh7  1  0.00000404  0.58972886  0.50001236  1
  Rh  Rh8  1  0.49999800  -0.00000522  0.58969590  1
  Rh  Rh9  1  0.91030416  0.50000211  0.00000242  1
  Rh  Rh10  1  0.00000708  0.91028330  0.50001081  1
  Rh  Rh11  1  0.58970749  0.58971154  0.58970702  1
  N  N12  1  0.70041205  0.74999561  0.45040355  1
  N  N13  1  0.24999666  0.70040947  0.45040411  1
  N  N14  1  0.75000838  0.79958460  0.04959202  1
  N  N15  1  0.70041227  0.45040797  0.24999857  1
  N  N16  1  0.79958853  0.04959950  0.75000273  1
  N  N17  1  0.45041152  0.24999845  0.70040868  1
  N  N18  1  0.45041364  0.70040158  0.74999798  1
  N  N19  1  0.25001749  0.04961138  0.79959374  1
  N  N20  1  0.04958286  0.79959022  0.24999717  1
  N  N21  1  0.74999700  0.45041353  0.70040733  1
  N  N22  1  0.79958435  0.25000562  0.04959510  1
  N  N23  1  0.04957302  0.74997873  0.79958992  1
