# generated using pymatgen
data_TlSb2P
_symmetry_space_group_name_H-M   'P 1'
_cell_length_a   7.61179917
_cell_length_b   7.61180508
_cell_length_c   17.47760016
_cell_angle_alpha   85.13310776
_cell_angle_beta   85.13332873
_cell_angle_gamma   90.01228811
_symmetry_Int_Tables_number   1
_chemical_formula_structural   TlSb2P
_chemical_formula_sum   'Tl8 Sb16 P8'
_cell_volume   1005.32723954
_cell_formula_units_Z   8
loop_
 _symmetry_equiv_pos_site_id
 _symmetry_equiv_pos_as_xyz
  1  'x, y, z'
loop_
 _atom_site_type_symbol
 _atom_site_label
 _atom_site_symmetry_multiplicity
 _atom_site_fract_x
 _atom_site_fract_y
 _atom_site_fract_z
 _atom_site_occupancy
  Tl  Tl0  1  0.66049201  0.80369632  0.38543891  1
  Tl  Tl1  1  0.19630058  0.33950958  0.11455972  1
  Tl  Tl2  1  0.33950752  0.19629977  0.61455885  1
  Tl  Tl3  1  0.80370305  0.66049086  0.88544250  1
  Tl  Tl4  1  0.22546797  0.84403374  0.09629031  1
  Tl  Tl5  1  0.15596662  0.77452819  0.40370952  1
  Tl  Tl6  1  0.77452998  0.15596626  0.90371073  1
  Tl  Tl7  1  0.84403339  0.22547377  0.59628954  1
  Sb  Sb8  1  0.39508227  0.02794083  0.25009581  1
  Sb  Sb9  1  0.97206084  0.60491773  0.24990144  1
  Sb  Sb10  1  0.60491922  0.97206221  0.74990416  1
  Sb  Sb11  1  0.02793625  0.39508076  0.75009855  1
  Sb  Sb12  1  0.40053591  0.59946756  0.25000007  1
  Sb  Sb13  1  0.59946561  0.40053097  0.74999993  1
  Sb  Sb14  1  0.98077523  0.01922425  0.24999936  1
  Sb  Sb15  1  0.01922352  0.98077702  0.75000064  1
  Sb  Sb16  1  0.67838935  0.86092676  0.06935948  1
  Sb  Sb17  1  0.13907404  0.32160715  0.43063810  1
  Sb  Sb18  1  0.32160960  0.13907420  0.93064032  1
  Sb  Sb19  1  0.86092508  0.67839384  0.56936209  1
  Sb  Sb20  1  0.64258472  0.24211628  0.43209552  1
  Sb  Sb21  1  0.75788049  0.35741822  0.06790178  1
  Sb  Sb22  1  0.35741535  0.75788126  0.56790415  1
  Sb  Sb23  1  0.24212216  0.64258176  0.93209855  1
  P  P24  1  0.40882853  0.29763149  0.33483117  1
  P  P25  1  0.70236752  0.59117244  0.16516738  1
  P  P26  1  0.59117045  0.70236885  0.66516911  1
  P  P27  1  0.29763209  0.40882864  0.83483232  1
  P  P28  1  0.70494095  0.08897881  0.16672397  1
  P  P29  1  0.91102221  0.29505875  0.33327356  1
  P  P30  1  0.29505961  0.91102110  0.83327632  1
  P  P31  1  0.08897792  0.70494064  0.66672612  1
