# generated using pymatgen
data_TlSi2As3
_symmetry_space_group_name_H-M   'P 1'
_cell_length_a   8.92410073
_cell_length_b   8.92410153
_cell_length_c   8.92410875
_cell_angle_alpha   109.47126218
_cell_angle_beta   109.47123807
_cell_angle_gamma   109.47121456
_symmetry_Int_Tables_number   1
_chemical_formula_structural   TlSi2As3
_chemical_formula_sum   'Tl4 Si8 As12'
_cell_volume   547.10621181
_cell_formula_units_Z   4
loop_
 _symmetry_equiv_pos_site_id
 _symmetry_equiv_pos_as_xyz
  1  'x, y, z'
loop_
 _atom_site_type_symbol
 _atom_site_label
 _atom_site_symmetry_multiplicity
 _atom_site_fract_x
 _atom_site_fract_y
 _atom_site_fract_z
 _atom_site_occupancy
  Tl  Tl0  1  0.25000004  0.25000010  0.24999989  1
  Tl  Tl1  1  0.00000011  0.25000006  0.50000012  1
  Tl  Tl2  1  0.25000018  0.50000029  0.00000009  1
  Tl  Tl3  1  0.50000004  -0.00000001  0.24999993  1
  Si  Si4  1  0.50000012  -0.00000013  0.87962071  1
  Si  Si5  1  0.62037849  0.49999995  -0.00000011  1
  Si  Si6  1  0.87962083  0.87962088  0.87962089  1
  Si  Si7  1  -0.00000030  0.62037895  0.50000008  1
  Si  Si8  1  0.49999980  -0.00000018  0.62037809  1
  Si  Si9  1  0.87962163  0.50000005  0.00000017  1
  Si  Si10  1  0.00000011  0.87962124  0.50000029  1
  Si  Si11  1  0.62037951  0.62037930  0.62037935  1
  As  As12  1  0.67139910  0.75000063  0.42139948  1
  As  As13  1  0.25000028  0.67139867  0.42139978  1
  As  As14  1  0.75000085  0.82860112  0.07860157  1
  As  As15  1  0.67139928  0.42139869  0.24999997  1
  As  As16  1  0.82860100  0.07860073  0.74999951  1
  As  As17  1  0.42139967  0.25000028  0.67139863  1
  As  As18  1  0.42139828  0.67139864  0.74999890  1
  As  As19  1  0.24999968  0.07860017  0.82860139  1
  As  As20  1  0.07860008  0.82860113  0.24999969  1
  As  As21  1  0.74999891  0.42139824  0.67139860  1
  As  As22  1  0.82860060  0.25000004  0.07860144  1
  As  As23  1  0.07860172  0.75000117  0.82860153  1
