# generated using pymatgen
data_TlTe2H
_symmetry_space_group_name_H-M   'P 1'
_cell_length_a   8.77518485
_cell_length_b   8.77585850
_cell_length_c   17.30284438
_cell_angle_alpha   69.51242477
_cell_angle_beta   69.51621154
_cell_angle_gamma   70.90546731
_symmetry_Int_Tables_number   1
_chemical_formula_structural   TlTe2H
_chemical_formula_sum   'Tl8 Te16 H8'
_cell_volume   1137.04189513
_cell_formula_units_Z   8
loop_
 _symmetry_equiv_pos_site_id
 _symmetry_equiv_pos_as_xyz
  1  'x, y, z'
loop_
 _atom_site_type_symbol
 _atom_site_label
 _atom_site_symmetry_multiplicity
 _atom_site_fract_x
 _atom_site_fract_y
 _atom_site_fract_z
 _atom_site_occupancy
  Tl  Tl0  1  0.46799533  0.74312286  0.62242329  1
  Tl  Tl1  1  0.25656758  0.53189393  0.87781538  1
  Tl  Tl2  1  0.53196918  0.25689507  0.37759301  1
  Tl  Tl3  1  0.74342322  0.46810972  0.12222274  1
  Tl  Tl4  1  0.22613236  -0.00394567  0.88045913  1
  Tl  Tl5  1  0.00388644  0.77392766  0.61969910  1
  Tl  Tl6  1  0.77388306  0.00395229  0.11951224  1
  Tl  Tl7  1  -0.00384674  0.22607386  0.38026989  1
  Te  Te8  1  0.46934149  0.74922311  0.36666715  1
  Te  Te9  1  0.25118946  0.53095482  0.13307567  1
  Te  Te10  1  0.53073031  0.25077703  0.63331704  1
  Te  Te11  1  0.74882106  0.46901848  -0.13305338  1
  Te  Te12  1  0.60414718  -0.08841515  0.71460229  1
  Te  Te13  1  0.08795048  0.39602738  0.78545257  1
  Te  Te14  1  0.39586083  0.08844266  0.28537737  1
  Te  Te15  1  -0.08794012  0.60396945  0.21452651  1
  Te  Te16  1  0.11681933  0.16994957  0.05989572  1
  Te  Te17  1  0.82964952  0.88313402  0.44027086  1
  Te  Te18  1  0.88323963  0.83001718  -0.05990569  1
  Te  Te19  1  0.17029884  0.11691888  0.55973760  1
  Te  Te20  1  0.06658951  -0.06660964  0.74998696  1
  Te  Te21  1  -0.06658585  0.06661445  0.25005022  1
  Te  Te22  1  0.61566102  0.38402134  0.75007946  1
  Te  Te23  1  0.38437869  0.61597379  0.24989287  1
  H  H24  1  0.31542280  0.28605117  0.67375536  1
  H  H25  1  0.71345441  0.68425754  0.82651025  1
  H  H26  1  0.68454324  0.71394648  0.32625655  1
  H  H27  1  0.28653680  0.31580304  0.17347457  1
  H  H28  1  0.71629968  -0.01834868  0.91681788  1
  H  H29  1  0.01847841  0.28378707  0.58296116  1
  H  H30  1  0.28369529  0.01823038  0.08320012  1
  H  H31  1  -0.01859245  0.71622589  0.41705612  1
