# generated using pymatgen
data_Tm2HgS3
_symmetry_space_group_name_H-M   'P 1'
_cell_length_a   9.06706785
_cell_length_b   9.06706700
_cell_length_c   9.06706755
_cell_angle_alpha   109.47133228
_cell_angle_beta   109.47119114
_cell_angle_gamma   109.47115182
_symmetry_Int_Tables_number   1
_chemical_formula_structural   Tm2HgS3
_chemical_formula_sum   'Tm8 Hg4 S12'
_cell_volume   573.82383001
_cell_formula_units_Z   4
loop_
 _symmetry_equiv_pos_site_id
 _symmetry_equiv_pos_as_xyz
  1  'x, y, z'
loop_
 _atom_site_type_symbol
 _atom_site_label
 _atom_site_symmetry_multiplicity
 _atom_site_fract_x
 _atom_site_fract_y
 _atom_site_fract_z
 _atom_site_occupancy
  Tm  Tm0  1  0.49999914  -0.00000038  0.94189717  1
  Tm  Tm1  1  0.94189751  0.50000032  -0.00000049  1
  Tm  Tm2  1  0.49999924  -0.00000014  0.55810213  1
  Tm  Tm3  1  0.00000085  0.55810294  0.50000066  1
  Tm  Tm4  1  0.94189764  0.94189708  0.94189784  1
  Tm  Tm5  1  0.55810226  0.50000012  -0.00000058  1
  Tm  Tm6  1  0.55810244  0.55810205  0.55810281  1
  Tm  Tm7  1  0.00000082  0.94189798  0.50000039  1
  Hg  Hg8  1  0.25000002  0.24999966  0.25000024  1
  Hg  Hg9  1  0.00000062  0.25000038  0.50000040  1
  Hg  Hg10  1  0.24999990  0.50000018  -0.00000042  1
  Hg  Hg11  1  0.49999944  -0.00000018  0.24999977  1
  S  S12  1  0.24999995  0.09877530  0.84877533  1
  S  S13  1  0.09877585  0.84877587  0.25000001  1
  S  S14  1  0.84877702  0.25000002  0.09877706  1
  S  S15  1  0.09877551  0.74999997  0.84877550  1
  S  S16  1  0.65122293  0.74999995  0.40122293  1
  S  S17  1  0.40122457  0.25000002  0.65122456  1
  S  S18  1  0.84877712  0.09877712  0.75000002  1
  S  S19  1  0.65122289  0.40122290  0.24999998  1
  S  S20  1  0.75000008  0.84877573  0.09877576  1
  S  S21  1  0.25000000  0.65122433  0.40122430  1
  S  S22  1  0.75000000  0.40122461  0.65122460  1
  S  S23  1  0.40122419  0.65122416  0.75000001  1
