# generated using pymatgen
data_Tm3PC3
_symmetry_space_group_name_H-M   'P 1'
_cell_length_a   6.18710795
_cell_length_b   6.18708667
_cell_length_c   6.18709081
_cell_angle_alpha   105.13893197
_cell_angle_beta   105.13957932
_cell_angle_gamma   105.14085870
_symmetry_Int_Tables_number   1
_chemical_formula_structural   Tm3PC3
_chemical_formula_sum   'Tm6 P2 C6'
_cell_volume   206.43848579
_cell_formula_units_Z   2
loop_
 _symmetry_equiv_pos_site_id
 _symmetry_equiv_pos_as_xyz
  1  'x, y, z'
loop_
 _atom_site_type_symbol
 _atom_site_label
 _atom_site_symmetry_multiplicity
 _atom_site_fract_x
 _atom_site_fract_y
 _atom_site_fract_z
 _atom_site_occupancy
  Tm  Tm0  1  0.62358985  0.74713177  0.03864825  1
  Tm  Tm1  1  0.12359453  0.53864854  0.24713119  1
  Tm  Tm2  1  0.53865033  0.24713311  0.12358866  1
  Tm  Tm3  1  0.03864901  0.62359258  0.74713144  1
  Tm  Tm4  1  0.74713368  0.03864989  0.62358447  1
  Tm  Tm5  1  0.24713251  0.12358368  0.53864841  1
  P  P6  1  0.55062706  0.55062839  0.55063085  1
  P  P7  1  0.05062681  0.05063034  0.05062937  1
  C  C8  1  0.26186092  0.90476449  0.15744260  1
  C  C9  1  0.76186623  0.65744572  0.40476447  1
  C  C10  1  0.40476547  0.76186486  0.65744329  1
  C  C11  1  0.90476429  0.15744438  0.26187189  1
  C  C12  1  0.65744460  0.40476254  0.76187302  1
  C  C13  1  0.15744672  0.26187172  0.90476410  1
