# generated using pymatgen
data_Tm3Sb3Ru
_symmetry_space_group_name_H-M   'P 1'
_cell_length_a   7.96048289
_cell_length_b   7.76881317
_cell_length_c   7.76630169
_cell_angle_alpha   108.95435285
_cell_angle_beta   109.97196044
_cell_angle_gamma   109.98351276
_symmetry_Int_Tables_number   1
_chemical_formula_structural   Tm3Sb3Ru
_chemical_formula_sum   'Tm6 Sb6 Ru2'
_cell_volume   367.42091313
_cell_formula_units_Z   2
loop_
 _symmetry_equiv_pos_site_id
 _symmetry_equiv_pos_as_xyz
  1  'x, y, z'
loop_
 _atom_site_type_symbol
 _atom_site_label
 _atom_site_symmetry_multiplicity
 _atom_site_fract_x
 _atom_site_fract_y
 _atom_site_fract_z
 _atom_site_occupancy
  Tm  Tm0  1  0.85470125  0.70280502  0.13332240  1
  Tm  Tm1  1  0.15183505  0.43072901  0.29724985  1
  Tm  Tm2  1  0.65190871  0.29720715  0.43052572  1
  Tm  Tm3  1  0.72132523  0.86660569  0.56941682  1
  Tm  Tm4  1  0.35459335  0.13347924  0.70271979  1
  Tm  Tm5  1  0.22116515  0.56932183  0.86657694  1
  Sb  Sb6  1  0.44015428  0.41344696  0.12459412  1
  Sb  Sb7  1  0.31568018  0.87541161  0.28889820  1
  Sb  Sb8  1  0.94020556  0.12456959  0.41344302  1
  Sb  Sb9  1  0.02675991  0.71113467  0.58660367  1
  Sb  Sb10  1  0.52669858  0.58649336  0.71109230  1
  Sb  Sb11  1  0.81552923  0.28883957  0.87546863  1
  Ru  Ru12  1  0.73973046  -0.00002695  0.00002588  1
  Ru  Ru13  1  0.23971109  -0.00001874  0.00005866  1
