# generated using pymatgen
data_TmSiGe
_symmetry_space_group_name_H-M   'P 1'
_cell_length_a   4.60814335
_cell_length_b   4.60814310
_cell_length_c   4.60814354
_cell_angle_alpha   59.99998601
_cell_angle_beta   59.99999893
_cell_angle_gamma   60.00000003
_symmetry_Int_Tables_number   1
_chemical_formula_structural   TmSiGe
_chemical_formula_sum   'Tm1 Si1 Ge1'
_cell_volume   69.19311606
_cell_formula_units_Z   1
loop_
 _symmetry_equiv_pos_site_id
 _symmetry_equiv_pos_as_xyz
  1  'x, y, z'
loop_
 _atom_site_type_symbol
 _atom_site_label
 _atom_site_symmetry_multiplicity
 _atom_site_fract_x
 _atom_site_fract_y
 _atom_site_fract_z
 _atom_site_occupancy
  Tm  Tm0  1  0.50000002  0.50000001  0.50000003  1
  Si  Si1  1  -0.00000000  -0.00000001  -0.00000000  1
  Ge  Ge2  1  0.74999999  0.74999999  0.74999997  1
