# generated using pymatgen
data_TmSiAu2
_symmetry_space_group_name_H-M   'P 1'
_cell_length_a   3.78945715
_cell_length_b   5.93588530
_cell_length_c   7.63264769
_cell_angle_alpha   79.69890725
_cell_angle_beta   90.00001509
_cell_angle_gamma   89.99997248
_symmetry_Int_Tables_number   1
_chemical_formula_structural   TmSiAu2
_chemical_formula_sum   'Tm2 Si2 Au4'
_cell_volume   168.91980406
_cell_formula_units_Z   2
loop_
 _symmetry_equiv_pos_site_id
 _symmetry_equiv_pos_as_xyz
  1  'x, y, z'
loop_
 _atom_site_type_symbol
 _atom_site_label
 _atom_site_symmetry_multiplicity
 _atom_site_fract_x
 _atom_site_fract_y
 _atom_site_fract_z
 _atom_site_occupancy
  Tm  Tm0  1  -0.00000002  0.49999987  0.00000011  1
  Tm  Tm1  1  0.00000003  0.49999993  0.49999993  1
  Si  Si2  1  0.49999998  0.00000096  0.50000022  1
  Si  Si3  1  0.00000006  0.00000006  -0.00000012  1
  Au  Au4  1  0.00000028  0.87958455  0.70260659  1
  Au  Au5  1  0.50000010  0.25877397  0.79028024  1
  Au  Au6  1  0.49999988  0.74122590  0.20971958  1
  Au  Au7  1  -0.00000031  0.12041476  0.29739345  1
