# generated using pymatgen
data_TmSO4
_symmetry_space_group_name_H-M   'P 1'
_cell_length_a   4.85158205
_cell_length_b   5.43968870
_cell_length_c   6.23449586
_cell_angle_alpha   99.26970157
_cell_angle_beta   90.55356242
_cell_angle_gamma   101.13145719
_symmetry_Int_Tables_number   1
_chemical_formula_structural   TmSO4
_chemical_formula_sum   'Tm2 S2 O8'
_cell_volume   159.19030897
_cell_formula_units_Z   2
loop_
 _symmetry_equiv_pos_site_id
 _symmetry_equiv_pos_as_xyz
  1  'x, y, z'
loop_
 _atom_site_type_symbol
 _atom_site_label
 _atom_site_symmetry_multiplicity
 _atom_site_fract_x
 _atom_site_fract_y
 _atom_site_fract_z
 _atom_site_occupancy
  Tm  Tm0  1  -0.01182976  0.70618228  0.79241367  1
  Tm  Tm1  1  0.11747564  0.29263893  0.22910293  1
  S  S2  1  0.58243220  0.18989017  0.77777058  1
  S  S3  1  0.50257864  0.79506896  0.22553056  1
  O  O4  1  0.70668537  -0.04613039  0.71563294  1
  O  O5  1  0.01309721  0.45396927  0.52301058  1
  O  O6  1  0.36995710  0.00358996  0.33257375  1
  O  O7  1  0.52657119  0.60145282  0.35889549  1
  O  O8  1  0.31083529  0.64272438  0.03469227  1
  O  O9  1  0.78460249  0.90457890  0.14913367  1
  O  O10  1  0.78968386  0.36438842  0.96530757  1
  O  O11  1  0.30791078  0.09164631  0.89593598  1
