# generated using pymatgen
data_TmTe2H
_symmetry_space_group_name_H-M   'P 1'
_cell_length_a   5.17538860
_cell_length_b   7.35722706
_cell_length_c   8.26465907
_cell_angle_alpha   75.40050596
_cell_angle_beta   89.99999967
_cell_angle_gamma   89.99999949
_symmetry_Int_Tables_number   1
_chemical_formula_structural   TmTe2H
_chemical_formula_sum   'Tm3 Te6 H3'
_cell_volume   304.52848570
_cell_formula_units_Z   3
loop_
 _symmetry_equiv_pos_site_id
 _symmetry_equiv_pos_as_xyz
  1  'x, y, z'
loop_
 _atom_site_type_symbol
 _atom_site_label
 _atom_site_symmetry_multiplicity
 _atom_site_fract_x
 _atom_site_fract_y
 _atom_site_fract_z
 _atom_site_occupancy
  Tm  Tm0  1  -0.00000003  0.50000017  0.50000017  1
  Tm  Tm1  1  -0.00000005  0.50000078  -0.00000160  1
  Tm  Tm2  1  -0.00000002  0.00000197  0.49999840  1
  Te  Te3  1  0.50000002  0.23835404  0.12578082  1
  Te  Te4  1  0.49999998  0.74163935  0.54255395  1
  Te  Te5  1  0.50000002  0.76164609  0.87421944  1
  Te  Te6  1  0.49999998  0.25836131  0.45744621  1
  Te  Te7  1  0.00000009  0.19664803  0.80248434  1
  Te  Te8  1  0.00000007  0.80335137  0.19751561  1
  H  H9  1  -0.00000002  0.33213609  0.30851405  1
  H  H10  1  -0.00000003  0.66786091  0.69148870  1
  H  H11  1  -0.00000001  -0.00000010  -0.00000007  1
