# generated using pymatgen
data_TmTiAs2
_symmetry_space_group_name_H-M   'P 1'
_cell_length_a   8.58776232
_cell_length_b   8.58493545
_cell_length_c   8.58608277
_cell_angle_alpha   107.89963820
_cell_angle_beta   107.90430505
_cell_angle_gamma   107.89100333
_symmetry_Int_Tables_number   1
_chemical_formula_structural   TmTiAs2
_chemical_formula_sum   'Tm6 Ti6 As12'
_cell_volume   513.71289873
_cell_formula_units_Z   6
loop_
 _symmetry_equiv_pos_site_id
 _symmetry_equiv_pos_as_xyz
  1  'x, y, z'
loop_
 _atom_site_type_symbol
 _atom_site_label
 _atom_site_symmetry_multiplicity
 _atom_site_fract_x
 _atom_site_fract_y
 _atom_site_fract_z
 _atom_site_occupancy
  Tm  Tm0  1  0.14863516  0.37866147  0.44717826  1
  Tm  Tm1  1  0.55283321  0.85140644  0.62138331  1
  Tm  Tm2  1  0.85136876  0.62136829  0.55283591  1
  Tm  Tm3  1  0.37861502  0.44715944  0.14859697  1
  Tm  Tm4  1  0.44716963  0.14857725  0.37861331  1
  Tm  Tm5  1  0.62135230  0.55282375  0.85141033  1
  Ti  Ti6  1  0.31341799  0.76482844  0.91894317  1
  Ti  Ti7  1  0.76482850  0.91892422  0.31340527  1
  Ti  Ti8  1  0.91891506  0.31337292  0.76478574  1
  Ti  Ti9  1  0.68659909  0.23519067  0.08105768  1
  Ti  Ti10  1  0.23519265  0.08109328  0.68660431  1
  Ti  Ti11  1  0.08106437  0.68659749  0.23517640  1
  As  As12  1  0.09260128  0.01525577  0.33774152  1
  As  As13  1  0.01521318  0.33773086  0.09258218  1
  As  As14  1  0.33771748  0.09258321  0.01523537  1
  As  As15  1  0.90740984  0.98475623  0.66227722  1
  As  As16  1  0.98477449  0.66224087  0.90739258  1
  As  As17  1  0.66229741  0.90742119  0.98477604  1
  As  As18  1  0.80277370  0.25786130  0.41760622  1
  As  As19  1  0.25783600  0.41760865  0.80275892  1
  As  As20  1  0.58240927  0.19722998  0.74213919  1
  As  As21  1  0.19723871  0.74215710  0.58240317  1
  As  As22  1  0.74213858  0.58239396  0.19724423  1
  As  As23  1  0.41759829  0.80275724  0.25785270  1
