# generated using pymatgen
data_TmTiS2
_symmetry_space_group_name_H-M   'P 1'
_cell_length_a   3.46332832
_cell_length_b   6.58826118
_cell_length_c   10.18557152
_cell_angle_alpha   39.37762997
_cell_angle_beta   89.99996666
_cell_angle_gamma   90.00000549
_symmetry_Int_Tables_number   1
_chemical_formula_structural   TmTiS2
_chemical_formula_sum   'Tm2 Ti2 S4'
_cell_volume   147.44591352
_cell_formula_units_Z   2
loop_
 _symmetry_equiv_pos_site_id
 _symmetry_equiv_pos_as_xyz
  1  'x, y, z'
loop_
 _atom_site_type_symbol
 _atom_site_label
 _atom_site_symmetry_multiplicity
 _atom_site_fract_x
 _atom_site_fract_y
 _atom_site_fract_z
 _atom_site_occupancy
  Tm  Tm0  1  0.00000016  0.50000116  -0.00000162  1
  Tm  Tm1  1  0.00000028  0.49999838  0.49999974  1
  Ti  Ti2  1  0.49999974  0.00000028  0.50000939  1
  Ti  Ti3  1  0.00000019  0.00000010  -0.00000096  1
  S  S4  1  -0.00000125  0.58456704  0.70770461  1
  S  S5  1  0.50000020  -0.00055104  0.80550746  1
  S  S6  1  0.50000005  0.00055077  0.19448770  1
  S  S7  1  0.00000063  0.41543331  0.29229368  1
