# generated using pymatgen
data_TmTlP
_symmetry_space_group_name_H-M   'P 1'
_cell_length_a   4.87825992
_cell_length_b   4.87826517
_cell_length_c   4.87825759
_cell_angle_alpha   59.99997096
_cell_angle_beta   59.99999310
_cell_angle_gamma   59.99997969
_symmetry_Int_Tables_number   1
_chemical_formula_structural   TmTlP
_chemical_formula_sum   'Tm1 Tl1 P1'
_cell_volume   82.08804012
_cell_formula_units_Z   1
loop_
 _symmetry_equiv_pos_site_id
 _symmetry_equiv_pos_as_xyz
  1  'x, y, z'
loop_
 _atom_site_type_symbol
 _atom_site_label
 _atom_site_symmetry_multiplicity
 _atom_site_fract_x
 _atom_site_fract_y
 _atom_site_fract_z
 _atom_site_occupancy
  Tm  Tm0  1  0.00000016  -0.00000011  0.00000004  1
  Tl  Tl1  1  0.25000007  0.24999998  0.24999998  1
  P  P2  1  0.49999977  0.50000013  0.49999998  1
