# generated using pymatgen
data_VAgN
_symmetry_space_group_name_H-M   'P 1'
_cell_length_a   6.32885990
_cell_length_b   6.32355788
_cell_length_c   6.31927589
_cell_angle_alpha   59.74733080
_cell_angle_beta   59.77446526
_cell_angle_gamma   59.79758201
_symmetry_Int_Tables_number   1
_chemical_formula_structural   VAgN
_chemical_formula_sum   'V4 Ag4 N4'
_cell_volume   177.90831987
_cell_formula_units_Z   4
loop_
 _symmetry_equiv_pos_site_id
 _symmetry_equiv_pos_as_xyz
  1  'x, y, z'
loop_
 _atom_site_type_symbol
 _atom_site_label
 _atom_site_symmetry_multiplicity
 _atom_site_fract_x
 _atom_site_fract_y
 _atom_site_fract_z
 _atom_site_occupancy
  V  V0  1  0.65763439  0.65755163  0.65747857  1
  V  V1  1  0.65724769  0.65718025  0.02777921  1
  V  V2  1  0.65732265  0.02770238  0.65714473  1
  V  V3  1  0.02762386  0.65731081  0.65717765  1
  Ag  Ag4  1  0.36452798  0.36453520  0.36458857  1
  Ag  Ag5  1  0.36490232  0.36494581  0.90534955  1
  Ag  Ag6  1  0.36486608  0.90551446  0.36490768  1
  Ag  Ag7  1  0.90569886  0.36481372  0.36482675  1
  N  N8  1  0.10669504  0.10673769  0.10685066  1
  N  N9  1  0.10670917  0.10679040  0.68017852  1
  N  N10  1  0.10673304  0.68010793  0.10687037  1
  N  N11  1  0.68003692  0.10680773  0.10684572  1
