# generated using pymatgen
data_VAs2C
_symmetry_space_group_name_H-M   'P 1'
_cell_length_a   7.86375614
_cell_length_b   7.86388311
_cell_length_c   7.86408822
_cell_angle_alpha   107.26225013
_cell_angle_beta   107.25922947
_cell_angle_gamma   107.26087572
_symmetry_Int_Tables_number   1
_chemical_formula_structural   VAs2C
_chemical_formula_sum   'V6 As12 C6'
_cell_volume   402.08976142
_cell_formula_units_Z   6
loop_
 _symmetry_equiv_pos_site_id
 _symmetry_equiv_pos_as_xyz
  1  'x, y, z'
loop_
 _atom_site_type_symbol
 _atom_site_label
 _atom_site_symmetry_multiplicity
 _atom_site_fract_x
 _atom_site_fract_y
 _atom_site_fract_z
 _atom_site_occupancy
  V  V0  1  0.46987346  0.24689020  0.41743690  1
  V  V1  1  0.24689023  0.41743407  0.46987294  1
  V  V2  1  0.41742962  0.46986179  0.24689442  1
  V  V3  1  0.53011343  0.75311338  0.58255370  1
  V  V4  1  0.75311581  0.58255608  0.53011696  1
  V  V5  1  0.58255627  0.53011981  0.75310480  1
  As  As6  1  0.71203415  0.51104275  0.13770190  1
  As  As7  1  0.13771040  0.71202351  0.51104631  1
  As  As8  1  0.48896553  0.86230075  0.28797380  1
  As  As9  1  0.51103325  0.13770540  0.71202321  1
  As  As10  1  0.28796716  0.48895912  0.86229257  1
  As  As11  1  0.86228710  0.28797088  0.48895509  1
  As  As12  1  0.66602207  0.89826087  0.95823567  1
  As  As13  1  0.95823430  0.66601797  0.89825022  1
  As  As14  1  0.89825145  0.95823210  0.66601372  1
  As  As15  1  0.33398561  0.10174500  0.04178029  1
  As  As16  1  0.04177416  0.33398191  0.10175486  1
  As  As17  1  0.10176341  0.04178600  0.33399357  1
  C  C18  1  0.23583630  -0.02207291  0.52815264  1
  C  C19  1  0.76416057  0.02207126  0.47184973  1
  C  C20  1  0.02207419  0.47183956  0.76416195  1
  C  C21  1  0.47184355  0.76415274  0.02206655  1
  C  C22  1  -0.02207417  0.52815723  0.23583884  1
  C  C23  1  0.52815214  0.23585052  -0.02207066  1
