# generated using pymatgen
data_VPN2
_symmetry_space_group_name_H-M   'P 1'
_cell_length_a   6.48375099
_cell_length_b   6.48393735
_cell_length_c   6.48389516
_cell_angle_alpha   101.23410292
_cell_angle_beta   101.23554904
_cell_angle_gamma   101.23927151
_symmetry_Int_Tables_number   1
_chemical_formula_structural   VPN2
_chemical_formula_sum   'V6 P6 N12'
_cell_volume   254.43926199
_cell_formula_units_Z   6
loop_
 _symmetry_equiv_pos_site_id
 _symmetry_equiv_pos_as_xyz
  1  'x, y, z'
loop_
 _atom_site_type_symbol
 _atom_site_label
 _atom_site_symmetry_multiplicity
 _atom_site_fract_x
 _atom_site_fract_y
 _atom_site_fract_z
 _atom_site_occupancy
  V  V0  1  0.49395522  0.20470407  0.43470456  1
  V  V1  1  0.20467790  0.43468846  0.49394919  1
  V  V2  1  0.43470613  0.49396387  0.20470014  1
  V  V3  1  0.50604829  0.79529358  0.56530102  1
  V  V4  1  0.79531821  0.56531120  0.50604240  1
  V  V5  1  0.56529038  0.50603753  0.79530199  1
  P  P6  1  0.12706798  -0.03766647  0.64875723  1
  P  P7  1  0.87293678  0.03765994  0.35124137  1
  P  P8  1  0.03762125  0.35122587  0.87293995  1
  P  P9  1  0.35123762  0.87295467  0.03767746  1
  P  P10  1  -0.03763074  0.64877341  0.12705642  1
  P  P11  1  0.64876286  0.12704560  -0.03767047  1
  N  N12  1  0.72630288  0.54194550  0.17293923  1
  N  N13  1  0.17288669  0.72627104  0.54190352  1
  N  N14  1  0.45810354  0.82708540  0.27373490  1
  N  N15  1  0.54190427  0.17292225  0.72627296  1
  N  N16  1  0.27370579  0.45804877  0.82704920  1
  N  N17  1  0.82711622  0.27374295  0.45810741  1
  N  N18  1  0.54992185  0.84203408  0.89059797  1
  N  N19  1  0.89058872  0.54993901  0.84203603  1
  N  N20  1  0.84202531  0.89060033  0.54994592  1
  N  N21  1  0.45007268  0.15797034  0.10940805  1
  N  N22  1  0.10940662  0.45005740  0.15795781  1
  N  N23  1  0.15797354  0.10939121  0.45004578  1
