# generated using pymatgen
data_W2CS
_symmetry_space_group_name_H-M   'P 1'
_cell_length_a   5.35500334
_cell_length_b   5.35345378
_cell_length_c   5.05336852
_cell_angle_alpha   71.71874081
_cell_angle_beta   108.33084416
_cell_angle_gamma   68.44541413
_symmetry_Int_Tables_number   1
_chemical_formula_structural   W2CS
_chemical_formula_sum   'W4 C2 S2'
_cell_volume   111.76784051
_cell_formula_units_Z   2
loop_
 _symmetry_equiv_pos_site_id
 _symmetry_equiv_pos_as_xyz
  1  'x, y, z'
loop_
 _atom_site_type_symbol
 _atom_site_label
 _atom_site_symmetry_multiplicity
 _atom_site_fract_x
 _atom_site_fract_y
 _atom_site_fract_z
 _atom_site_occupancy
  W  W0  1  0.32672456  0.82323004  0.76275203  1
  W  W1  1  0.17683106  0.67340386  0.26263223  1
  W  W2  1  0.82316766  0.32659781  0.73736544  1
  W  W3  1  0.67327646  0.17676967  0.23725045  1
  C  C4  1  0.41054579  0.41052758  0.74994545  1
  C  C5  1  0.58945834  0.58947346  0.25005479  1
  S  S6  1  0.79803583  0.79786309  0.74988832  1
  S  S7  1  0.20196030  0.20213449  0.25011129  1
