# generated using pymatgen
data_WAuS4
_symmetry_space_group_name_H-M   'P 1'
_cell_length_a   7.37737035
_cell_length_b   5.51472410
_cell_length_c   6.06615946
_cell_angle_alpha   87.10952595
_cell_angle_beta   89.99999900
_cell_angle_gamma   89.99999559
_symmetry_Int_Tables_number   1
_chemical_formula_structural   WAuS4
_chemical_formula_sum   'W2 Au2 S8'
_cell_volume   246.48262896
_cell_formula_units_Z   2
loop_
 _symmetry_equiv_pos_site_id
 _symmetry_equiv_pos_as_xyz
  1  'x, y, z'
loop_
 _atom_site_type_symbol
 _atom_site_label
 _atom_site_symmetry_multiplicity
 _atom_site_fract_x
 _atom_site_fract_y
 _atom_site_fract_z
 _atom_site_occupancy
  W  W0  1  0.66577776  0.50000001  0.75000001  1
  W  W1  1  0.33422187  0.49999999  0.24999998  1
  Au  Au2  1  0.18281225  0.00000001  0.74999999  1
  Au  Au3  1  0.81718775  -0.00000001  0.25000001  1
  S  S4  1  0.86976384  0.24204023  0.90984753  1
  S  S5  1  0.40953874  0.27060891  0.94352865  1
  S  S6  1  0.40953873  0.72939110  0.55647132  1
  S  S7  1  0.86976382  0.75795975  0.59015252  1
  S  S8  1  0.13023638  0.24204048  0.40984724  1
  S  S9  1  0.59046125  0.27060885  0.44352856  1
  S  S10  1  0.59046124  0.72939114  0.05647148  1
  S  S11  1  0.13023636  0.75795954  0.09015271  1
