# generated using pymatgen
data_YHS
_symmetry_space_group_name_H-M   'P 1'
_cell_length_a   7.07169927
_cell_length_b   7.07152671
_cell_length_c   14.98897251
_cell_angle_alpha   89.97935753
_cell_angle_beta   90.02208532
_cell_angle_gamma   120.00280073
_symmetry_Int_Tables_number   1
_chemical_formula_structural   YHS
_chemical_formula_sum   'Y12 H12 S12'
_cell_volume   649.12325236
_cell_formula_units_Z   12
loop_
 _symmetry_equiv_pos_site_id
 _symmetry_equiv_pos_as_xyz
  1  'x, y, z'
loop_
 _atom_site_type_symbol
 _atom_site_label
 _atom_site_symmetry_multiplicity
 _atom_site_fract_x
 _atom_site_fract_y
 _atom_site_fract_z
 _atom_site_occupancy
  Y  Y0  1  0.66117222  -0.01242547  0.40443383  1
  Y  Y1  1  -0.01249422  0.66122838  0.90464061  1
  Y  Y2  1  0.32638942  -0.01253854  0.09538784  1
  Y  Y3  1  0.66123676  0.67365681  0.09539808  1
  Y  Y4  1  0.01249208  0.33877684  0.09536936  1
  Y  Y5  1  0.01237889  0.67370819  0.40445361  1
  Y  Y6  1  0.32634282  0.33883889  0.40446456  1
  Y  Y7  1  0.33883395  0.01242995  0.59556856  1
  Y  Y8  1  0.67360756  0.01253620  0.90462092  1
  Y  Y9  1  -0.01237355  0.32629736  0.59555206  1
  Y  Y10  1  0.67366998  0.66117775  0.59553840  1
  Y  Y11  1  0.33875902  0.32633694  0.90460923  1
  H  H12  1  0.06222663  0.66680404  0.76750291  1
  H  H13  1  0.06331434  0.39657995  0.73215051  1
  H  H14  1  0.66678508  0.60452853  0.23254632  1
  H  H15  1  -0.06226463  0.33319095  0.23248833  1
  H  H16  1  0.60346085  0.66683820  0.73211248  1
  H  H17  1  0.60459840  -0.06230132  0.76748496  1
  H  H18  1  0.33321199  0.39544675  0.76745224  1
  H  H19  1  0.66683445  0.06336207  0.26782755  1
  H  H20  1  0.39544098  0.06233942  0.23250085  1
  H  H21  1  0.33315964  -0.06338487  0.73216602  1
  H  H22  1  0.39649849  0.33314684  0.26787303  1
  H  H23  1  -0.06327194  0.60345414  0.26783371  1
  S  S24  1  0.33335041  0.66665352  -0.00583536  1
  S  S25  1  0.66665038  0.33334747  0.00583511  1
  S  S26  1  0.66668169  0.33332084  0.49421474  1
  S  S27  1  0.33332368  0.66668739  0.50578929  1
  S  S28  1  -0.00000137  -0.00000065  0.00000429  1
  S  S29  1  0.00000415  0.00000472  0.49999824  1
  S  S30  1  0.16675961  0.83428070  0.24992237  1
  S  S31  1  0.33247859  0.16682298  0.75008458  1
  S  S32  1  0.83319794  0.16567131  0.75008178  1
  S  S33  1  0.83434805  0.66753282  0.75008151  1
  S  S34  1  0.66751594  0.83319564  0.24992324  1
  S  S35  1  0.16568172  0.33245527  0.24992422  1
