# generated using pymatgen
data_YMn2Sb3
_symmetry_space_group_name_H-M   'P 1'
_cell_length_a   9.04342889
_cell_length_b   9.04359805
_cell_length_c   9.04351280
_cell_angle_alpha   109.47164967
_cell_angle_beta   109.47088971
_cell_angle_gamma   109.47135268
_symmetry_Int_Tables_number   1
_chemical_formula_structural   YMn2Sb3
_chemical_formula_sum   'Y4 Mn8 Sb12'
_cell_volume   569.36191413
_cell_formula_units_Z   4
loop_
 _symmetry_equiv_pos_site_id
 _symmetry_equiv_pos_as_xyz
  1  'x, y, z'
loop_
 _atom_site_type_symbol
 _atom_site_label
 _atom_site_symmetry_multiplicity
 _atom_site_fract_x
 _atom_site_fract_y
 _atom_site_fract_z
 _atom_site_occupancy
  Y  Y0  1  0.49999847  -0.00000173  0.25000787  1
  Y  Y1  1  0.25001129  0.50000158  0.00000065  1
  Y  Y2  1  0.24999424  0.24999619  0.24999279  1
  Y  Y3  1  0.00000085  0.24999962  0.50000275  1
  Mn  Mn4  1  0.92239830  0.49999534  -0.00000060  1
  Mn  Mn5  1  0.57761768  0.49999840  0.00000396  1
  Mn  Mn6  1  0.50000057  0.00000664  0.57762568  1
  Mn  Mn7  1  0.49999486  0.00000324  0.92238516  1
  Mn  Mn8  1  0.57761463  0.57761543  0.57761599  1
  Mn  Mn9  1  0.92237111  0.92237012  0.92237114  1
  Mn  Mn10  1  0.00000547  0.57761283  0.49999759  1
  Mn  Mn11  1  -0.00000121  0.92238931  0.49999255  1
  Sb  Sb12  1  0.86629447  0.25000300  0.11629865  1
  Sb  Sb13  1  0.86629711  0.11630430  0.75000373  1
  Sb  Sb14  1  0.63370128  0.38370074  0.25000106  1
  Sb  Sb15  1  0.74999644  0.38370160  0.63370501  1
  Sb  Sb16  1  0.75000358  0.86630120  0.11630343  1
  Sb  Sb17  1  0.63370296  0.74999820  0.38370155  1
  Sb  Sb18  1  0.38370135  0.25000014  0.63370044  1
  Sb  Sb19  1  0.25000143  0.63370474  0.38370063  1
  Sb  Sb20  1  0.24999917  0.11629882  0.86629478  1
  Sb  Sb21  1  0.11629394  0.86629382  0.24999783  1
  Sb  Sb22  1  0.38370012  0.63370192  0.74999585  1
  Sb  Sb23  1  0.11630191  0.75000454  0.86630152  1
