# generated using pymatgen
data_ZnMoP2
_symmetry_space_group_name_H-M   'P 1'
_cell_length_a   3.70804651
_cell_length_b   5.05022770
_cell_length_c   7.03542461
_cell_angle_alpha   92.15077248
_cell_angle_beta   89.99995794
_cell_angle_gamma   90.00173791
_symmetry_Int_Tables_number   1
_chemical_formula_structural   ZnMoP2
_chemical_formula_sum   'Zn2 Mo2 P4'
_cell_volume   131.65591953
_cell_formula_units_Z   2
loop_
 _symmetry_equiv_pos_site_id
 _symmetry_equiv_pos_as_xyz
  1  'x, y, z'
loop_
 _atom_site_type_symbol
 _atom_site_label
 _atom_site_symmetry_multiplicity
 _atom_site_fract_x
 _atom_site_fract_y
 _atom_site_fract_z
 _atom_site_occupancy
  Zn  Zn0  1  0.00000033  0.00000685  0.00000108  1
  Zn  Zn1  1  0.49999823  -0.00000989  0.50000751  1
  Mo  Mo2  1  0.49999948  0.67991935  0.17363249  1
  Mo  Mo3  1  0.50000098  0.32008462  0.82636199  1
  P  P4  1  0.49999630  0.21258668  0.16478385  1
  P  P5  1  -0.00000084  0.34276294  0.60531880  1
  P  P6  1  0.00000099  0.65723315  0.39468324  1
  P  P7  1  0.50000454  0.78741630  0.83521104  1
