# generated using pymatgen
data_ZrAs2Ir
_symmetry_space_group_name_H-M   'P 1'
_cell_length_a   6.88781647
_cell_length_b   5.55318345
_cell_length_c   5.55627615
_cell_angle_alpha   87.33960115
_cell_angle_beta   120.50121501
_cell_angle_gamma   120.51058524
_symmetry_Int_Tables_number   1
_chemical_formula_structural   ZrAs2Ir
_chemical_formula_sum   'Zr2 As4 Ir2'
_cell_volume   151.23515250
_cell_formula_units_Z   2
loop_
 _symmetry_equiv_pos_site_id
 _symmetry_equiv_pos_as_xyz
  1  'x, y, z'
loop_
 _atom_site_type_symbol
 _atom_site_label
 _atom_site_symmetry_multiplicity
 _atom_site_fract_x
 _atom_site_fract_y
 _atom_site_fract_z
 _atom_site_occupancy
  Zr  Zr0  1  0.74990897  0.61392562  0.38587554  1
  Zr  Zr1  1  0.25009108  0.38607476  0.61412419  1
  As  As2  1  0.30421313  0.92015069  0.61002945  1
  As  As3  1  0.19559163  0.38957299  0.07982147  1
  As  As4  1  0.80440788  0.61042683  0.92017825  1
  As  As5  1  0.69578727  0.07984944  0.38997071  1
  Ir  Ir6  1  0.25019579  -0.00806505  0.00796616  1
  Ir  Ir7  1  0.74980427  0.00806471  -0.00796577  1
