# generated using pymatgen
data_ZrVSi2
_symmetry_space_group_name_H-M   'P 1'
_cell_length_a   4.27351049
_cell_length_b   4.27351123
_cell_length_c   8.28738794
_cell_angle_alpha   89.99999220
_cell_angle_beta   89.99999488
_cell_angle_gamma   119.99999924
_symmetry_Int_Tables_number   1
_chemical_formula_structural   ZrVSi2
_chemical_formula_sum   'Zr2 V2 Si4'
_cell_volume   131.07441507
_cell_formula_units_Z   2
loop_
 _symmetry_equiv_pos_site_id
 _symmetry_equiv_pos_as_xyz
  1  'x, y, z'
loop_
 _atom_site_type_symbol
 _atom_site_label
 _atom_site_symmetry_multiplicity
 _atom_site_fract_x
 _atom_site_fract_y
 _atom_site_fract_z
 _atom_site_occupancy
  Zr  Zr0  1  0.33333328  0.66666667  0.62137338  1
  Zr  Zr1  1  0.66666680  0.33333340  0.37862620  1
  V  V2  1  0.00000002  -0.00000014  0.14057610  1
  V  V3  1  -0.00000004  0.00000016  0.85942087  1
  Si  Si4  1  0.33333343  0.66666679  0.95294170  1
  Si  Si5  1  0.66666659  0.33333318  0.04706431  1
  Si  Si6  1  0.33333341  0.66666641  0.25789738  1
  Si  Si7  1  0.66666652  0.33333354  0.74210006  1
