# generated using pymatgen
data_ZrZnAs2
_symmetry_space_group_name_H-M   'P 1'
_cell_length_a   3.82340926
_cell_length_b   3.82340933
_cell_length_c   6.24773134
_cell_angle_alpha   89.99998240
_cell_angle_beta   90.00001601
_cell_angle_gamma   120.00001635
_symmetry_Int_Tables_number   1
_chemical_formula_structural   ZrZnAs2
_chemical_formula_sum   'Zr1 Zn1 As2'
_cell_volume   79.09599415
_cell_formula_units_Z   1
loop_
 _symmetry_equiv_pos_site_id
 _symmetry_equiv_pos_as_xyz
  1  'x, y, z'
loop_
 _atom_site_type_symbol
 _atom_site_label
 _atom_site_symmetry_multiplicity
 _atom_site_fract_x
 _atom_site_fract_y
 _atom_site_fract_z
 _atom_site_occupancy
  Zr  Zr0  1  0.00000015  -0.00000018  0.49999999  1
  Zn  Zn1  1  -0.00000017  0.00000019  0.00000001  1
  As  As2  1  0.66666666  0.33333338  0.23612251  1
  As  As3  1  0.33333336  0.66666662  0.76387748  1
