# generated using pymatgen
data_Ag15P4Se16Cl3
_symmetry_space_group_name_H-M   'P 1'
_cell_length_a   13.58167803
_cell_length_b   13.58167808
_cell_length_c   13.58167804
_cell_angle_alpha   109.47124990
_cell_angle_beta   109.47124995
_cell_angle_gamma   109.47125029
_symmetry_Int_Tables_number   1
_chemical_formula_structural   Ag15P4Se16Cl3
_chemical_formula_sum   'Ag30 P8 Se32 Cl6'
_cell_volume   1928.58120867
_cell_formula_units_Z   2
loop_
 _symmetry_equiv_pos_site_id
 _symmetry_equiv_pos_as_xyz
  1  'x, y, z'
loop_
 _atom_site_type_symbol
 _atom_site_label
 _atom_site_symmetry_multiplicity
 _atom_site_fract_x
 _atom_site_fract_y
 _atom_site_fract_z
 _atom_site_occupancy
  Ag  Ag0  1  0.78149571  0.58086271  0.62739916  1
  Ag  Ag1  1  0.12499997  0.74999997  0.87499964  1
  Ag  Ag2  1  0.15409615  0.87260031  0.45346338  1
  Ag  Ag3  1  0.70063312  0.04653651  0.91913715  1
  Ag  Ag4  1  0.20063312  0.41913714  0.54653650  1
  Ag  Ag5  1  0.95346338  0.37260031  0.65409616  1
  Ag  Ag6  1  0.45346338  0.15409615  0.87260031  1
  Ag  Ag7  1  0.08086272  0.28149571  0.12739916  1
  Ag  Ag8  1  0.91913714  0.70063311  0.04653650  1
  Ag  Ag9  1  0.79936683  0.71850446  0.34590391  1
  Ag  Ag10  1  0.54653650  0.20063312  0.41913714  1
  Ag  Ag11  1  0.74999997  0.87499963  0.12499997  1
  Ag  Ag12  1  0.58086272  0.62739917  0.78149572  1
  Ag  Ag13  1  0.21850446  0.29936683  0.84590391  1
  Ag  Ag14  1  0.04653651  0.91913715  0.70063313  1
  Ag  Ag15  1  0.12739917  0.08086272  0.28149571  1
  Ag  Ag16  1  0.65409615  0.95346338  0.37260031  1
  Ag  Ag17  1  0.37260031  0.65409616  0.95346338  1
  Ag  Ag18  1  0.87499964  0.12499997  0.74999997  1
  Ag  Ag19  1  0.37499964  0.24999997  0.62499997  1
  Ag  Ag20  1  0.84590391  0.21850447  0.29936684  1
  Ag  Ag21  1  0.34590390  0.79936683  0.71850446  1
  Ag  Ag22  1  0.87260031  0.45346338  0.15409616  1
  Ag  Ag23  1  0.28149571  0.12739917  0.08086272  1
  Ag  Ag24  1  0.62739916  0.78149571  0.58086271  1
  Ag  Ag25  1  0.71850447  0.34590391  0.79936684  1
  Ag  Ag26  1  0.62499997  0.37499964  0.24999997  1
  Ag  Ag27  1  0.41913715  0.54653651  0.20063312  1
  Ag  Ag28  1  0.29936683  0.84590390  0.21850446  1
  Ag  Ag29  1  0.24999998  0.62499997  0.37499964  1
  P  P30  1  0.39915188  0.39915188  0.39915188  1
  P  P31  1  0.50000010  0.00000010  0.10084815  1
  P  P32  1  0.60084813  0.50000007  0.00000008  1
  P  P33  1  0.10084813  0.50000008  0.00000007  1
  P  P34  1  0.00000008  0.60084813  0.50000007  1
  P  P35  1  0.00000007  0.10084813  0.50000008  1
  P  P36  1  0.89915188  0.89915188  0.89915188  1
  P  P37  1  0.50000010  0.00000010  0.60084815  1
  Se  Se38  1  0.31473825  0.94675135  0.08169061  1
  Se  Se39  1  0.08169060  0.31473824  0.94675134  1
  Se  Se40  1  0.50000007  0.00000033  0.43588299  1
  Se  Se41  1  0.68526187  0.13201339  0.76695225  1
  Se  Se42  1  0.36798680  0.05324867  0.63493905  1
  Se  Se43  1  0.50000033  0.00000008  0.93588299  1
  Se  Se44  1  0.06411733  0.06411733  0.06411733  1
  Se  Se45  1  0.63201338  0.18526187  0.26695225  1
  Se  Se46  1  0.93588299  0.50000033  0.00000008  1
  Se  Se47  1  0.41830954  0.36506059  0.23304768  1
  Se  Se48  1  0.55324867  0.86798680  0.13493905  1
  Se  Se49  1  0.44675135  0.81473825  0.58169060  1
  Se  Se50  1  0.00000008  0.93588299  0.50000033  1
  Se  Se51  1  0.76695223  0.68526185  0.13201337  1
  Se  Se52  1  0.36506059  0.23304768  0.41830954  1
  Se  Se53  1  0.81473824  0.58169060  0.44675134  1
  Se  Se54  1  0.94675134  0.08169060  0.31473824  1
  Se  Se55  1  0.86506059  0.91830954  0.73304768  1
  Se  Se56  1  0.91830954  0.73304767  0.86506058  1
  Se  Se57  1  0.13201337  0.76695223  0.68526186  1
  Se  Se58  1  0.00000033  0.43588300  0.50000008  1
  Se  Se59  1  0.43588299  0.50000008  0.00000033  1
  Se  Se60  1  0.63493904  0.36798679  0.05324866  1
  Se  Se61  1  0.58169060  0.44675134  0.81473824  1
  Se  Se62  1  0.23304767  0.41830953  0.36506058  1
  Se  Se63  1  0.56411733  0.56411733  0.56411732  1
  Se  Se64  1  0.26695223  0.63201337  0.18526185  1
  Se  Se65  1  0.05324866  0.63493905  0.36798679  1
  Se  Se66  1  0.18526185  0.26695223  0.63201337  1
  Se  Se67  1  0.86798679  0.13493904  0.55324866  1
  Se  Se68  1  0.73304768  0.86506059  0.91830954  1
  Se  Se69  1  0.13493905  0.55324867  0.86798679  1
  Cl  Cl70  1  0.12499993  0.87500009  0.25000011  1
  Cl  Cl71  1  0.62499993  0.75000011  0.37500009  1
  Cl  Cl72  1  0.75000011  0.37500009  0.62499993  1
  Cl  Cl73  1  0.25000012  0.12499993  0.87500009  1
  Cl  Cl74  1  0.37500009  0.62499993  0.75000011  1
  Cl  Cl75  1  0.87500009  0.25000012  0.12499994  1
