# generated using pymatgen
data_Ag15P4S16Br3
_symmetry_space_group_name_H-M   'P 1'
_cell_length_a   13.09034278
_cell_length_b   13.09034292
_cell_length_c   13.09034277
_cell_angle_alpha   109.47123325
_cell_angle_beta   109.47123293
_cell_angle_gamma   109.47123332
_symmetry_Int_Tables_number   1
_chemical_formula_structural   Ag15P4S16Br3
_chemical_formula_sum   'Ag30 P8 S32 Br6'
_cell_volume   1726.75598112
_cell_formula_units_Z   2
loop_
 _symmetry_equiv_pos_site_id
 _symmetry_equiv_pos_as_xyz
  1  'x, y, z'
loop_
 _atom_site_type_symbol
 _atom_site_label
 _atom_site_symmetry_multiplicity
 _atom_site_fract_x
 _atom_site_fract_y
 _atom_site_fract_z
 _atom_site_occupancy
  Ag  Ag0  1  0.78455413  0.59530394  0.62516975  1
  Ag  Ag1  1  0.12499997  0.74999991  0.87499988  1
  Ag  Ag2  1  0.15938399  0.87482997  0.47013397  1
  Ag  Ag3  1  0.68925035  0.02986587  0.90469591  1
  Ag  Ag4  1  0.18925037  0.40469593  0.52986588  1
  Ag  Ag5  1  0.97013399  0.37483000  0.65938402  1
  Ag  Ag6  1  0.47013399  0.15938400  0.87482998  1
  Ag  Ag7  1  0.09530393  0.28455413  0.12516974  1
  Ag  Ag8  1  0.90469593  0.68925037  0.02986589  1
  Ag  Ag9  1  0.81074953  0.71544608  0.34061593  1
  Ag  Ag10  1  0.52986588  0.18925037  0.40469592  1
  Ag  Ag11  1  0.74999993  0.87499990  0.12499997  1
  Ag  Ag12  1  0.59530394  0.62516975  0.78455414  1
  Ag  Ag13  1  0.21544608  0.31074952  0.84061593  1
  Ag  Ag14  1  0.02986589  0.90469592  0.68925037  1
  Ag  Ag15  1  0.12516975  0.09530395  0.28455415  1
  Ag  Ag16  1  0.65938401  0.97013399  0.37482999  1
  Ag  Ag17  1  0.37482998  0.65938400  0.97013399  1
  Ag  Ag18  1  0.87499988  0.12499995  0.74999991  1
  Ag  Ag19  1  0.37499990  0.24999992  0.62499997  1
  Ag  Ag20  1  0.84061594  0.21544609  0.31074952  1
  Ag  Ag21  1  0.34061593  0.81074950  0.71544606  1
  Ag  Ag22  1  0.87482999  0.47013399  0.15938403  1
  Ag  Ag23  1  0.28455415  0.12516975  0.09530395  1
  Ag  Ag24  1  0.62516975  0.78455416  0.59530395  1
  Ag  Ag25  1  0.71544609  0.34061594  0.81074953  1
  Ag  Ag26  1  0.62499996  0.37499989  0.24999991  1
  Ag  Ag27  1  0.40469593  0.52986589  0.18925038  1
  Ag  Ag28  1  0.31074951  0.84061592  0.21544607  1
  Ag  Ag29  1  0.24999992  0.62499996  0.37499988  1
  P  P30  1  0.40172960  0.40172960  0.40172960  1
  P  P31  1  0.50000010  0.00000001  0.09827047  1
  P  P32  1  0.59827048  0.50000002  0.00000011  1
  P  P33  1  0.09827047  0.50000010  0.00000001  1
  P  P34  1  0.00000010  0.59827049  0.50000002  1
  P  P35  1  0.00000001  0.09827049  0.50000011  1
  P  P36  1  0.90172960  0.90172960  0.90172960  1
  P  P37  1  0.50000001  0.00000010  0.59827047  1
  S  S38  1  0.32224604  0.94400735  0.08006012  1
  S  S39  1  0.08006012  0.32224604  0.94400735  1
  S  S40  1  0.49999999  0.00000008  0.44157139  1
  S  S41  1  0.67775400  0.12176157  0.75781444  1
  S  S42  1  0.37823846  0.05599258  0.63605259  1
  S  S43  1  0.50000007  -0.00000002  0.94157137  1
  S  S44  1  0.05842916  0.05842916  0.05842916  1
  S  S45  1  0.62176158  0.17775402  0.25781445  1
  S  S46  1  0.94157141  0.50000011  0.00000003  1
  S  S47  1  0.41993997  0.36394726  0.24218540  1
  S  S48  1  0.55599259  0.87823846  0.13605259  1
  S  S49  1  0.44400735  0.82224605  0.58006011  1
  S  S50  1  0.00000001  0.94157140  0.50000010  1
  S  S51  1  0.75781445  0.67775402  0.12176158  1
  S  S52  1  0.36394725  0.24218540  0.41993996  1
  S  S53  1  0.82224605  0.58006011  0.44400736  1
  S  S54  1  0.94400736  0.08006012  0.32224606  1
  S  S55  1  0.86394726  0.91993997  0.74218541  1
  S  S56  1  0.91993996  0.74218540  0.86394726  1
  S  S57  1  0.12176158  0.75781446  0.67775402  1
  S  S58  1  0.00000010  0.44157140  0.50000002  1
  S  S59  1  0.44157140  0.50000001  0.00000009  1
  S  S60  1  0.63605261  0.37823847  0.05599259  1
  S  S61  1  0.58006012  0.44400736  0.82224605  1
  S  S62  1  0.24218540  0.41993996  0.36394725  1
  S  S63  1  0.55842917  0.55842917  0.55842917  1
  S  S64  1  0.25781447  0.62176158  0.17775402  1
  S  S65  1  0.05599259  0.63605261  0.37823848  1
  S  S66  1  0.17775402  0.25781446  0.62176158  1
  S  S67  1  0.87823847  0.13605262  0.55599259  1
  S  S68  1  0.74218540  0.86394725  0.91993996  1
  S  S69  1  0.13605261  0.55599259  0.87823846  1
  Br  Br70  1  0.12500002  0.87500001  0.25000002  1
  Br  Br71  1  0.62500001  0.75000002  0.37500000  1
  Br  Br72  1  0.75000001  0.37500000  0.62500001  1
  Br  Br73  1  0.25000002  0.12500001  0.87500001  1
  Br  Br74  1  0.37499999  0.62500000  0.75000001  1
  Br  Br75  1  0.87500000  0.25000001  0.12500001  1
