# generated using pymatgen
data_Ag2HgBr4
_symmetry_space_group_name_H-M   'P 1'
_cell_length_a   7.57399291
_cell_length_b   7.57399237
_cell_length_c   7.57400778
_cell_angle_alpha   131.92482488
_cell_angle_beta   131.92482518
_cell_angle_gamma   70.34813327
_symmetry_Int_Tables_number   1
_chemical_formula_structural   Ag2HgBr4
_chemical_formula_sum   'Ag2 Hg1 Br4'
_cell_volume   235.71024998
_cell_formula_units_Z   1
loop_
 _symmetry_equiv_pos_site_id
 _symmetry_equiv_pos_as_xyz
  1  'x, y, z'
loop_
 _atom_site_type_symbol
 _atom_site_label
 _atom_site_symmetry_multiplicity
 _atom_site_fract_x
 _atom_site_fract_y
 _atom_site_fract_z
 _atom_site_occupancy
  Ag  Ag0  1  0.24999936  0.74999949  0.49999898  1
  Ag  Ag1  1  0.49999953  0.49999958  -0.00000056  1
  Hg  Hg2  1  -0.00000043  -0.00000048  -0.00000069  1
  Br  Br3  1  0.63407264  0.12982324  0.02366623  1
  Br  Br4  1  0.87017750  0.89384323  0.50425004  1
  Br  Br5  1  0.10615773  0.61040707  0.97633507  1
  Br  Br6  1  0.38959365  0.36592789  0.49575093  1
