# generated using pymatgen
data_Ag2H2ClOF
_symmetry_space_group_name_H-M   'P 1'
_cell_length_a   7.43392077
_cell_length_b   5.02290411
_cell_length_c   6.41106751
_cell_angle_alpha   89.31644759
_cell_angle_beta   90.00006078
_cell_angle_gamma   89.99991808
_symmetry_Int_Tables_number   1
_chemical_formula_structural   Ag2H2ClOF
_chemical_formula_sum   'Ag4 H4 Cl2 O2 F2'
_cell_volume   239.37139909
_cell_formula_units_Z   2
loop_
 _symmetry_equiv_pos_site_id
 _symmetry_equiv_pos_as_xyz
  1  'x, y, z'
loop_
 _atom_site_type_symbol
 _atom_site_label
 _atom_site_symmetry_multiplicity
 _atom_site_fract_x
 _atom_site_fract_y
 _atom_site_fract_z
 _atom_site_occupancy
  Ag  Ag0  1  0.51683006  -0.00836680  0.71497906  1
  Ag  Ag1  1  0.01683134  0.00836595  0.28502114  1
  Ag  Ag2  1  0.91383531  0.00545019  0.72194907  1
  Ag  Ag3  1  0.41383691  0.99454988  0.27805121  1
  H  H4  1  0.26180563  0.70157743  0.98057411  1
  H  H5  1  0.76180591  0.29842285  0.01942609  1
  H  H6  1  0.45759535  0.54735583  0.00455777  1
  H  H7  1  0.95759533  0.45264382  -0.00455799  1
  Cl  Cl8  1  0.23644230  0.24428360  0.53715496  1
  Cl  Cl9  1  0.73644231  0.75571739  0.46284449  1
  O  O10  1  0.39639642  0.72846389  0.99388377  1
  O  O11  1  0.89639644  0.27153623  0.00611615  1
  F  F12  1  0.05439213  0.71550443  -0.01221320  1
  F  F13  1  0.55439254  0.28449530  0.01221337  1
