# generated using pymatgen
data_Ag2HgI2O
_symmetry_space_group_name_H-M   'P 1'
_cell_length_a   7.69980777
_cell_length_b   7.69980888
_cell_length_c   6.94122633
_cell_angle_alpha   89.99985724
_cell_angle_beta   89.99985552
_cell_angle_gamma   122.11036497
_symmetry_Int_Tables_number   1
_chemical_formula_structural   Ag2HgI2O
_chemical_formula_sum   'Ag4 Hg2 I4 O2'
_cell_volume   348.57213032
_cell_formula_units_Z   2
loop_
 _symmetry_equiv_pos_site_id
 _symmetry_equiv_pos_as_xyz
  1  'x, y, z'
loop_
 _atom_site_type_symbol
 _atom_site_label
 _atom_site_symmetry_multiplicity
 _atom_site_fract_x
 _atom_site_fract_y
 _atom_site_fract_z
 _atom_site_occupancy
  Ag  Ag0  1  0.47905725  0.18164009  0.24634009  1
  Ag  Ag1  1  0.18164005  0.47905723  0.24634011  1
  Ag  Ag2  1  0.81836126  0.52094339  0.74634043  1
  Ag  Ag3  1  0.52094338  0.81836123  0.74634036  1
  Hg  Hg4  1  0.01543337  0.01543336  0.56846100  1
  Hg  Hg5  1  0.98456541  0.98456542  0.06846175  1
  I  I6  1  0.45485388  0.14276573  0.82796722  1
  I  I7  1  0.14276577  0.45485385  0.82796723  1
  I  I8  1  0.54514609  0.85723445  0.32796722  1
  I  I9  1  0.85723443  0.54514614  0.32796725  1
  O  O10  1  0.15904437  0.15904440  0.30872299  1
  O  O11  1  0.84095474  0.84095471  0.80872237  1
