# generated using pymatgen
data_Ag2PHSe4
_symmetry_space_group_name_H-M   'P 1'
_cell_length_a   7.13268978
_cell_length_b   7.13078825
_cell_length_c   13.65896712
_cell_angle_alpha   90.00587171
_cell_angle_beta   90.00810703
_cell_angle_gamma   120.05166649
_symmetry_Int_Tables_number   1
_chemical_formula_structural   Ag2PHSe4
_chemical_formula_sum   'Ag6 P3 H3 Se12'
_cell_volume   601.33019719
_cell_formula_units_Z   3
loop_
 _symmetry_equiv_pos_site_id
 _symmetry_equiv_pos_as_xyz
  1  'x, y, z'
loop_
 _atom_site_type_symbol
 _atom_site_label
 _atom_site_symmetry_multiplicity
 _atom_site_fract_x
 _atom_site_fract_y
 _atom_site_fract_z
 _atom_site_occupancy
  Ag  Ag0  1  0.10860081  0.05517482  -0.00013856  1
  Ag  Ag1  1  0.94452108  0.05381692  0.33263246  1
  Ag  Ag2  1  0.94682370  0.89278034  0.66537237  1
  Ag  Ag3  1  0.54277571  0.77258647  -0.00032973  1
  Ag  Ag4  1  0.22842539  0.76978604  0.33462323  1
  Ag  Ag5  1  0.23091526  0.45640820  0.66671479  1
  P  P6  1  0.96559687  0.48380310  0.00004159  1
  P  P7  1  0.51594513  0.48152396  0.33335182  1
  P  P8  1  0.51783321  0.03434474  0.66646459  1
  H  H9  1  0.60684935  0.21032986  0.16613733  1
  H  H10  1  0.78918899  0.39874708  0.49934997  1
  H  H11  1  0.60438442  0.39282958  0.83341427  1
  Se  Se12  1  0.38841746  0.21034663  0.75616443  1
  Se  Se13  1  0.78619959  1.17611926  0.08833652  1
  Se  Se14  1  -0.17712407  0.61143059  0.42218677  1
  Se  Se15  1  0.39112339  1.17497946  0.24556837  1
  Se  Se16  1  0.78621570  0.60960065  0.91107267  1
  Se  Se17  1  -0.17526826  0.21708050  0.57899024  1
  Se  Se18  1  0.59609446  -0.22577731  0.24307357  1
  Se  Se19  1  1.22568645  0.82261392  0.57578498  1
  Se  Se20  1  0.17999831  0.40468931  0.91071313  1
  Se  Se21  1  0.59823417  0.82085893  0.75583881  1
  Se  Se22  1  1.22332999  0.39982713  0.42380521  1
  Se  Se23  1  0.17523088  -0.22389816  0.09083116  1
