# generated using pymatgen
data_Ag3AsSe4
_symmetry_space_group_name_H-M   'P 1'
_cell_length_a   6.98221546
_cell_length_b   7.35057292
_cell_length_c   8.35204310
_cell_angle_alpha   90.00000204
_cell_angle_beta   89.99999641
_cell_angle_gamma   89.99999936
_symmetry_Int_Tables_number   1
_chemical_formula_structural   Ag3AsSe4
_chemical_formula_sum   'Ag6 As2 Se8'
_cell_volume   428.65427902
_cell_formula_units_Z   2
loop_
 _symmetry_equiv_pos_site_id
 _symmetry_equiv_pos_as_xyz
  1  'x, y, z'
loop_
 _atom_site_type_symbol
 _atom_site_label
 _atom_site_symmetry_multiplicity
 _atom_site_fract_x
 _atom_site_fract_y
 _atom_site_fract_z
 _atom_site_occupancy
  Ag  Ag0  1  0.98313536  0.14883381  0.49999994  1
  Ag  Ag1  1  0.01348740  0.68571583  0.76067161  1
  Ag  Ag2  1  0.51348741  0.31428416  0.73932841  1
  Ag  Ag3  1  0.48313536  0.85116619  -0.00000007  1
  Ag  Ag4  1  0.51348740  0.31428417  0.26067161  1
  Ag  Ag5  1  0.01348741  0.68571584  0.23932841  1
  As  As6  1  0.49758579  0.82118510  0.50000001  1
  As  As7  1  0.99758580  0.17881491  0.00000002  1
  Se  Se8  1  0.38983015  0.66026034  0.26430395  1
  Se  Se9  1  0.88983013  0.33973970  0.23569607  1
  Se  Se10  1  0.88983015  0.33973966  0.76430397  1
  Se  Se11  1  0.38983013  0.66026029  0.73569605  1
  Se  Se12  1  0.34162422  0.18595860  0.00000000  1
  Se  Se13  1  0.86892052  0.87664376  0.00000001  1
  Se  Se14  1  0.84162423  0.81404140  0.50000000  1
  Se  Se15  1  0.36892052  0.12335622  0.50000001  1
