# generated using pymatgen
data_Ag3PS4
_symmetry_space_group_name_H-M   'P 1'
_cell_length_a   6.96415070
_cell_length_b   6.96415052
_cell_length_c   6.96415126
_cell_angle_alpha   90.23733493
_cell_angle_beta   90.23733482
_cell_angle_gamma   90.23733523
_symmetry_Int_Tables_number   1
_chemical_formula_structural   Ag3PS4
_chemical_formula_sum   'Ag6 P2 S8'
_cell_volume   337.74839682
_cell_formula_units_Z   2
loop_
 _symmetry_equiv_pos_site_id
 _symmetry_equiv_pos_as_xyz
  1  'x, y, z'
loop_
 _atom_site_type_symbol
 _atom_site_label
 _atom_site_symmetry_multiplicity
 _atom_site_fract_x
 _atom_site_fract_y
 _atom_site_fract_z
 _atom_site_occupancy
  Ag  Ag0  1  0.23501458  -0.00495932  0.49852866  1
  Ag  Ag1  1  -0.00495922  0.49852860  0.23501439  1
  Ag  Ag2  1  0.49852858  0.23501455  -0.00495929  1
  Ag  Ag3  1  0.49504070  0.73501499  0.99852862  1
  Ag  Ag4  1  0.73501494  0.99852854  0.49504074  1
  Ag  Ag5  1  0.99852856  0.49504079  0.73501483  1
  P  P6  1  0.49541454  0.49541451  0.49541455  1
  P  P7  1  -0.00458548  -0.00458545  -0.00458544  1
  S  S8  1  0.32359004  0.32358996  0.32359003  1
  S  S9  1  0.32486769  0.66527396  0.67126973  1
  S  S10  1  0.67126976  0.32486768  0.66527396  1
  S  S11  1  0.66527398  0.67126971  0.32486773  1
  S  S12  1  0.16527398  0.82486767  0.17126972  1
  S  S13  1  0.82486767  0.17126974  0.16527398  1
  S  S14  1  0.82358997  0.82359005  0.82359005  1
  S  S15  1  0.17126969  0.16527400  0.82486772  1
