# generated using pymatgen
data_Ag4AsIO4
_symmetry_space_group_name_H-M   'P 1'
_cell_length_a   7.01161121
_cell_length_b   9.49185578
_cell_length_c   11.51355511
_cell_angle_alpha   71.24528935
_cell_angle_beta   90.00000794
_cell_angle_gamma   90.00000322
_symmetry_Int_Tables_number   1
_chemical_formula_structural   Ag4AsIO4
_chemical_formula_sum   'Ag16 As4 I4 O16'
_cell_volume   725.57818092
_cell_formula_units_Z   4
loop_
 _symmetry_equiv_pos_site_id
 _symmetry_equiv_pos_as_xyz
  1  'x, y, z'
loop_
 _atom_site_type_symbol
 _atom_site_label
 _atom_site_symmetry_multiplicity
 _atom_site_fract_x
 _atom_site_fract_y
 _atom_site_fract_z
 _atom_site_occupancy
  Ag  Ag0  1  0.04238002  0.36234750  0.92107783  1
  Ag  Ag1  1  0.54450973  0.99175048  0.78467875  1
  Ag  Ag2  1  0.74999997  0.61657926  0.30647225  1
  Ag  Ag3  1  0.04450969  0.00824954  0.21532090  1
  Ag  Ag4  1  0.54238000  0.63765252  0.07892203  1
  Ag  Ag5  1  0.45549027  0.00824952  0.21532124  1
  Ag  Ag6  1  0.25000003  0.38342074  0.69352775  1
  Ag  Ag7  1  0.02779993  0.28709127  0.45975956  1
  Ag  Ag8  1  0.45762000  0.36234748  0.92107798  1
  Ag  Ag9  1  0.47220011  0.28709132  0.45975959  1
  Ag  Ag10  1  0.95761998  0.63765250  0.07892217  1
  Ag  Ag11  1  0.95549031  0.99175046  0.78467910  1
  Ag  Ag12  1  0.24999999  0.31627307  0.23092692  1
  Ag  Ag13  1  0.97220007  0.71290873  0.54024044  1
  Ag  Ag14  1  0.75000001  0.68372693  0.76907308  1
  Ag  Ag15  1  0.52779988  0.71290868  0.54024041  1
  As  As16  1  0.25000000  0.64089683  0.32440319  1
  As  As17  1  0.75000000  0.35910317  0.67559681  1
  As  As18  1  0.24999998  0.69929980  0.79613082  1
  As  As19  1  0.75000002  0.30070020  0.20386918  1
  I  I20  1  0.75000005  0.94921366  0.57267566  1
  I  I21  1  0.25000004  0.10273059  0.98041970  1
  I  I22  1  0.74999996  0.89726942  0.01958029  1
  I  I23  1  0.24999996  0.05078633  0.42732433  1
  O  O24  1  0.45342383  0.62266280  0.87864932  1
  O  O25  1  0.24999999  0.48549416  0.45399566  1
  O  O26  1  0.75000003  0.34924894  0.33824928  1
  O  O27  1  0.24999997  0.88913002  0.76726996  1
  O  O28  1  0.24999998  0.65075106  0.66175072  1
  O  O29  1  0.95513156  0.25531874  0.67316392  1
  O  O30  1  0.75000003  0.11086998  0.23273004  1
  O  O31  1  0.54657617  0.37733720  0.12135068  1
  O  O32  1  0.04657621  0.62266280  0.87864938  1
  O  O33  1  0.74999995  0.40844080  0.80871462  1
  O  O34  1  0.25000005  0.59155920  0.19128538  1
  O  O35  1  0.95342379  0.37733720  0.12135062  1
  O  O36  1  0.45513156  0.74468124  0.32683617  1
  O  O37  1  0.75000001  0.51450584  0.54600434  1
  O  O38  1  0.54486843  0.25531876  0.67316383  1
  O  O39  1  0.04486844  0.74468126  0.32683608  1
