# generated using pymatgen
data_Ag4SO5
_symmetry_space_group_name_H-M   'P 1'
_cell_length_a   8.27229616
_cell_length_b   8.27229527
_cell_length_c   10.95370197
_cell_angle_alpha   75.38662568
_cell_angle_beta   75.38663328
_cell_angle_gamma   45.31846619
_symmetry_Int_Tables_number   1
_chemical_formula_structural   Ag4SO5
_chemical_formula_sum   'Ag16 S4 O20'
_cell_volume   512.65943070
_cell_formula_units_Z   4
loop_
 _symmetry_equiv_pos_site_id
 _symmetry_equiv_pos_as_xyz
  1  'x, y, z'
loop_
 _atom_site_type_symbol
 _atom_site_label
 _atom_site_symmetry_multiplicity
 _atom_site_fract_x
 _atom_site_fract_y
 _atom_site_fract_z
 _atom_site_occupancy
  Ag  Ag0  1  0.16465383  0.70848811  0.50854655  1
  Ag  Ag1  1  0.91000661  0.08999328  0.25000003  1
  Ag  Ag2  1  0.08999336  0.91000675  0.74999997  1
  Ag  Ag3  1  0.71610601  0.48177951  0.74975736  1
  Ag  Ag4  1  0.51822056  0.28389405  0.75024263  1
  Ag  Ag5  1  0.28389399  0.51822049  0.25024263  1
  Ag  Ag6  1  0.12071767  0.27917191  0.27090226  1
  Ag  Ag7  1  0.48177945  0.71610594  0.24975737  1
  Ag  Ag8  1  0.72082820  0.87928222  0.22909775  1
  Ag  Ag9  1  0.50000002  -0.00000001  0.00000001  1
  Ag  Ag10  1  0.70848834  0.16465361  0.00854650  1
  Ag  Ag11  1  0.27917180  0.12071779  0.77090225  1
  Ag  Ag12  1  0.29151166  0.83534637  0.99145354  1
  Ag  Ag13  1  0.87928232  0.72082811  0.72909775  1
  Ag  Ag14  1  0.00000000  0.49999999  0.49999998  1
  Ag  Ag15  1  0.83534620  0.29151188  0.49145342  1
  S  S16  1  0.43811851  0.86911815  0.51025903  1
  S  S17  1  0.56188123  0.13088227  0.48974051  1
  S  S18  1  0.13088236  0.56188144  0.98974080  1
  S  S19  1  0.86911725  0.43811879  0.01025964  1
  O  O20  1  0.89231249  0.58883065  0.09150583  1
  O  O21  1  0.93215294  0.80961349  0.90202362  1
  O  O22  1  0.48194842  0.66278268  0.60879082  1
  O  O23  1  0.68283927  0.68285609  0.41753724  1
  O  O24  1  0.41116915  0.10768743  0.40849413  1
  O  O25  1  0.58883091  0.89231249  0.59150596  1
  O  O26  1  0.80961353  0.93215279  0.40202374  1
  O  O27  1  0.51805166  0.33721717  0.39120930  1
  O  O28  1  0.10768759  0.41116929  0.90849408  1
  O  O29  1  0.33721730  0.51805163  0.89120924  1
  O  O30  1  0.90670115  0.28651784  0.91403558  1
  O  O31  1  0.09329891  0.71348214  0.08596436  1
  O  O32  1  0.31714387  0.31716064  0.08246274  1
  O  O33  1  0.31716078  0.31714383  0.58246286  1
  O  O34  1  0.66278285  0.48194829  0.10879064  1
  O  O35  1  0.71348229  0.09329893  0.58596444  1
  O  O36  1  0.68285621  0.68283931  0.91753717  1
  O  O37  1  0.28651773  0.90670101  0.41403563  1
  O  O38  1  0.06784712  0.19038648  0.09797631  1
  O  O39  1  0.19038649  0.06784716  0.59797634  1
