# generated using pymatgen
data_Ag4SeO5
_symmetry_space_group_name_H-M   'P 1'
_cell_length_a   8.49235265
_cell_length_b   8.49235484
_cell_length_c   11.21949966
_cell_angle_alpha   76.04295928
_cell_angle_beta   76.04290589
_cell_angle_gamma   44.16454984
_symmetry_Int_Tables_number   1
_chemical_formula_structural   Ag4SeO5
_chemical_formula_sum   'Ag16 Se4 O20'
_cell_volume   544.32088702
_cell_formula_units_Z   4
loop_
 _symmetry_equiv_pos_site_id
 _symmetry_equiv_pos_as_xyz
  1  'x, y, z'
loop_
 _atom_site_type_symbol
 _atom_site_label
 _atom_site_symmetry_multiplicity
 _atom_site_fract_x
 _atom_site_fract_y
 _atom_site_fract_z
 _atom_site_occupancy
  Ag  Ag0  1  0.15862507  0.70924896  0.52113340  1
  Ag  Ag1  1  0.90902458  0.09097577  0.24999976  1
  Ag  Ag2  1  0.09097547  0.90902418  0.75000024  1
  Ag  Ag3  1  0.71906897  0.47093595  0.75138300  1
  Ag  Ag4  1  0.52906548  0.28092968  0.74861692  1
  Ag  Ag5  1  0.28093101  0.52906407  0.24861700  1
  Ag  Ag6  1  0.13063443  0.27757422  0.26715162  1
  Ag  Ag7  1  0.47093452  0.71907032  0.25138307  1
  Ag  Ag8  1  0.72242585  0.86936543  0.23284863  1
  Ag  Ag9  1  0.49999999  0.00000000  -0.00000002  1
  Ag  Ag10  1  0.70924925  0.15862528  0.02113307  1
  Ag  Ag11  1  0.27757416  0.13063456  0.76715137  1
  Ag  Ag12  1  0.29075074  0.84137475  0.97886688  1
  Ag  Ag13  1  0.86936557  0.72242578  0.73284836  1
  Ag  Ag14  1  -0.00000002  0.50000002  0.50000003  1
  Ag  Ag15  1  0.84137488  0.29075106  0.47886665  1
  Se  Se16  1  0.43389247  0.86718407  0.51096028  1
  Se  Se17  1  0.56610791  0.13281534  0.48904038  1
  Se  Se18  1  0.13281686  0.56610782  0.98904001  1
  Se  Se19  1  0.86718360  0.43389192  0.01095942  1
  O  O20  1  0.88583885  0.60094380  0.09496234  1
  O  O21  1  0.92230014  0.82755604  0.89176411  1
  O  O22  1  0.49096374  0.63804994  0.61373564  1
  O  O23  1  0.69768979  0.66278751  0.41098652  1
  O  O24  1  0.39905521  0.11416210  0.40503740  1
  O  O25  1  0.60094469  0.88583804  0.59496247  1
  O  O26  1  0.82755641  0.92229962  0.39176403  1
  O  O27  1  0.50903614  0.36195035  0.38626418  1
  O  O28  1  0.11416106  0.39905626  0.90503777  1
  O  O29  1  0.36195030  0.50903658  0.88626443  1
  O  O30  1  0.90972238  0.26474839  0.91114076  1
  O  O31  1  0.09027756  0.73525169  0.08885936  1
  O  O32  1  0.33721236  0.30230994  0.08901338  1
  O  O33  1  0.30231020  0.33721254  0.58901337  1
  O  O34  1  0.63804947  0.49096350  0.11373573  1
  O  O35  1  0.73525237  0.09027726  0.58885907  1
  O  O36  1  0.66278760  0.69769005  0.91098672  1
  O  O37  1  0.26474753  0.90972283  0.41114079  1
  O  O38  1  0.07769983  0.17244395  0.10823597  1
  O  O39  1  0.17244358  0.07770044  0.60823588  1
