# generated using pymatgen
data_Ag8RhSe6
_symmetry_space_group_name_H-M   'P 1'
_cell_length_a   7.93790712
_cell_length_b   7.76635121
_cell_length_c   11.03110324
_cell_angle_alpha   90.00000480
_cell_angle_beta   89.99936429
_cell_angle_gamma   90.00000314
_symmetry_Int_Tables_number   1
_chemical_formula_structural   Ag8RhSe6
_chemical_formula_sum   'Ag16 Rh2 Se12'
_cell_volume   680.05179062
_cell_formula_units_Z   2
loop_
 _symmetry_equiv_pos_site_id
 _symmetry_equiv_pos_as_xyz
  1  'x, y, z'
loop_
 _atom_site_type_symbol
 _atom_site_label
 _atom_site_symmetry_multiplicity
 _atom_site_fract_x
 _atom_site_fract_y
 _atom_site_fract_z
 _atom_site_occupancy
  Ag  Ag0  1  0.63901002  0.49999971  0.49579081  1
  Ag  Ag1  1  0.66714970  0.50000031  0.96710733  1
  Ag  Ag2  1  0.33285422  0.00000031  0.46709930  1
  Ag  Ag3  1  0.83688051  0.74182625  0.13599162  1
  Ag  Ag4  1  0.52055098  0.80826903  0.28039140  1
  Ag  Ag5  1  0.47944566  0.69172951  0.78039042  1
  Ag  Ag6  1  0.83688074  0.25817414  0.13599093  1
  Ag  Ag7  1  0.16311773  0.24182155  0.63598488  1
  Ag  Ag8  1  0.16311752  0.75817878  0.63598415  1
  Ag  Ag9  1  0.47944592  0.30827005  0.78039081  1
  Ag  Ag10  1  0.84098644  0.19940449  0.86066421  1
  Ag  Ag11  1  0.15900733  0.30060123  0.36066001  1
  Ag  Ag12  1  0.15900722  0.69939877  0.36066002  1
  Ag  Ag13  1  0.84098629  0.80059557  0.86066423  1
  Ag  Ag14  1  0.52055128  0.19173043  0.28039103  1
  Ag  Ag15  1  0.36099649  -0.00000038  -0.00421015  1
  Rh  Rh16  1  0.28022458  0.50000025  0.00043459  1
  Rh  Rh17  1  0.71978872  0.00000018  0.50043467  1
  Se  Se18  1  0.30723813  0.49999992  0.52852790  1
  Se  Se19  1  0.69276223  -0.00000004  0.02853010  1
  Se  Se20  1  0.75866744  0.49999999  0.74201880  1
  Se  Se21  1  0.24133014  -0.00000003  0.24201639  1
  Se  Se22  1  0.49211522  0.49999988  0.15897528  1
  Se  Se23  1  0.50788227  -0.00000004  0.65896868  1
  Se  Se24  1  0.06410244  0.50000015  0.15364762  1
  Se  Se25  1  0.93589387  0.00000010  0.65365467  1
  Se  Se26  1  0.18965057  0.25198821  0.88991302  1
  Se  Se27  1  0.81035303  0.24800787  0.38990819  1
  Se  Se28  1  0.81035293  0.75199208  0.38990854  1
  Se  Se29  1  0.18965038  0.74801172  0.88991255  1
