# generated using pymatgen
data_AgAsO3
_symmetry_space_group_name_H-M   'P 1'
_cell_length_a   6.96333523
_cell_length_b   6.96333315
_cell_length_c   6.96333326
_cell_angle_alpha   59.99994054
_cell_angle_beta   59.99995203
_cell_angle_gamma   59.99994878
_symmetry_Int_Tables_number   1
_chemical_formula_structural   AgAsO3
_chemical_formula_sum   'Ag4 As4 O12'
_cell_volume   238.74601952
_cell_formula_units_Z   4
loop_
 _symmetry_equiv_pos_site_id
 _symmetry_equiv_pos_as_xyz
  1  'x, y, z'
loop_
 _atom_site_type_symbol
 _atom_site_label
 _atom_site_symmetry_multiplicity
 _atom_site_fract_x
 _atom_site_fract_y
 _atom_site_fract_z
 _atom_site_occupancy
  Ag  Ag0  1  0.62500000  0.12500000  0.12500000  1
  Ag  Ag1  1  0.12500000  0.62500000  0.12500000  1
  Ag  Ag2  1  0.12500000  0.12500000  0.62500000  1
  Ag  Ag3  1  0.12500000  0.12500000  0.12500000  1
  As  As4  1  0.12500000  0.62500000  0.62500000  1
  As  As5  1  0.62500000  0.12500000  0.62500000  1
  As  As6  1  0.62500000  0.62500000  0.12500000  1
  As  As7  1  0.62500000  0.62500000  0.62500000  1
  O  O8  1  0.69761468  0.69761466  0.30238534  1
  O  O9  1  0.30238534  0.30238533  0.69761463  1
  O  O10  1  0.69761469  0.30238533  0.69761468  1
  O  O11  1  0.30238533  0.69761465  0.30238531  1
  O  O12  1  0.30238531  0.69761472  0.69761471  1
  O  O13  1  0.69761460  0.30238537  0.30238536  1
  O  O14  1  0.55238532  0.55238534  0.94761466  1
  O  O15  1  0.94761466  0.94761467  0.55238537  1
  O  O16  1  0.55238531  0.94761466  0.55238532  1
  O  O17  1  0.94761468  0.55238535  0.94761469  1
  O  O18  1  0.94761469  0.55238529  0.55238528  1
  O  O19  1  0.55238540  0.94761463  0.94761464  1
