# generated using pymatgen
data_AgAsCl6
_symmetry_space_group_name_H-M   'P 1'
_cell_length_a   7.03425158
_cell_length_b   7.03425071
_cell_length_c   7.03425106
_cell_angle_alpha   59.99999590
_cell_angle_beta   59.99999823
_cell_angle_gamma   60.00000639
_symmetry_Int_Tables_number   1
_chemical_formula_structural   AgAsCl6
_chemical_formula_sum   'Ag1 As1 Cl6'
_cell_volume   246.11529734
_cell_formula_units_Z   1
loop_
 _symmetry_equiv_pos_site_id
 _symmetry_equiv_pos_as_xyz
  1  'x, y, z'
loop_
 _atom_site_type_symbol
 _atom_site_label
 _atom_site_symmetry_multiplicity
 _atom_site_fract_x
 _atom_site_fract_y
 _atom_site_fract_z
 _atom_site_occupancy
  Ag  Ag0  1  0.50000000  0.50000002  0.49999996  1
  As  As1  1  0.00000000  0.00000001  -0.00000002  1
  Cl  Cl2  1  0.23506992  0.76493013  0.23506993  1
  Cl  Cl3  1  0.23506982  0.23507008  0.76493008  1
  Cl  Cl4  1  0.76493016  0.23506978  0.23507003  1
  Cl  Cl5  1  0.23506976  0.76493015  0.76493003  1
  Cl  Cl6  1  0.76493020  0.76492990  0.23506999  1
  Cl  Cl7  1  0.76493013  0.23506992  0.76493000  1
