# generated using pymatgen
data_AgBO2
_symmetry_space_group_name_H-M   'P 1'
_cell_length_a   2.63462809
_cell_length_b   2.63462837
_cell_length_c   12.08253296
_cell_angle_alpha   90.00000094
_cell_angle_beta   89.99999914
_cell_angle_gamma   120.00000930
_symmetry_Int_Tables_number   1
_chemical_formula_structural   AgBO2
_chemical_formula_sum   'Ag2 B2 O4'
_cell_volume   72.63187600
_cell_formula_units_Z   2
loop_
 _symmetry_equiv_pos_site_id
 _symmetry_equiv_pos_as_xyz
  1  'x, y, z'
loop_
 _atom_site_type_symbol
 _atom_site_label
 _atom_site_symmetry_multiplicity
 _atom_site_fract_x
 _atom_site_fract_y
 _atom_site_fract_z
 _atom_site_occupancy
  Ag  Ag0  1  0.66666665  0.33333333  0.75000000  1
  Ag  Ag1  1  0.33333335  0.66666667  0.25000000  1
  B  B2  1  -0.00000000  -0.00000000  -0.00000000  1
  B  B3  1  0.00000000  -0.00000000  0.50000000  1
  O  O4  1  0.33333344  0.66666671  0.42889022  1
  O  O5  1  0.66666657  0.33333329  0.92889022  1
  O  O6  1  0.33333343  0.66666671  0.07110978  1
  O  O7  1  0.66666656  0.33333329  0.57110978  1
