# generated using pymatgen
data_AgBS2
_symmetry_space_group_name_H-M   'P 1'
_cell_length_a   5.48253849
_cell_length_b   5.48253844
_cell_length_c   5.82363909
_cell_angle_alpha   118.08046551
_cell_angle_beta   118.08046638
_cell_angle_gamma   90.00003673
_symmetry_Int_Tables_number   1
_chemical_formula_structural   AgBS2
_chemical_formula_sum   'Ag2 B2 S4'
_cell_volume   130.62657806
_cell_formula_units_Z   2
loop_
 _symmetry_equiv_pos_site_id
 _symmetry_equiv_pos_as_xyz
  1  'x, y, z'
loop_
 _atom_site_type_symbol
 _atom_site_label
 _atom_site_symmetry_multiplicity
 _atom_site_fract_x
 _atom_site_fract_y
 _atom_site_fract_z
 _atom_site_occupancy
  Ag  Ag0  1  0.24999972  0.75000010  0.49999987  1
  Ag  Ag1  1  0.00000009  -0.00000024  -0.00000010  1
  B  B2  1  0.49999993  0.49999963  0.00000015  1
  B  B3  1  0.74999964  0.24999994  0.50000016  1
  S  S4  1  0.78562023  0.87499990  0.24999999  1
  S  S5  1  0.62500041  0.21438006  0.74999997  1
  S  S6  1  0.46438007  0.37500039  0.24999997  1
  S  S7  1  0.12499991  0.53562022  0.74999999  1
