# generated using pymatgen
data_AgHgSCl
_symmetry_space_group_name_H-M   'P 1'
_cell_length_a   7.03534526
_cell_length_b   7.61670124
_cell_length_c   8.34567452
_cell_angle_alpha   89.99999476
_cell_angle_beta   89.99995105
_cell_angle_gamma   90.00000954
_symmetry_Int_Tables_number   1
_chemical_formula_structural   AgHgSCl
_chemical_formula_sum   'Ag4 Hg4 S4 Cl4'
_cell_volume   447.21234106
_cell_formula_units_Z   4
loop_
 _symmetry_equiv_pos_site_id
 _symmetry_equiv_pos_as_xyz
  1  'x, y, z'
loop_
 _atom_site_type_symbol
 _atom_site_label
 _atom_site_symmetry_multiplicity
 _atom_site_fract_x
 _atom_site_fract_y
 _atom_site_fract_z
 _atom_site_occupancy
  Ag  Ag0  1  0.11360454  0.18272996  0.41166862  1
  Ag  Ag1  1  0.61360454  0.31727005  0.58833134  1
  Ag  Ag2  1  0.38639550  0.81727008  0.91166867  1
  Ag  Ag3  1  0.88639546  0.68272997  0.08833138  1
  Hg  Hg4  1  0.25765714  0.26911104  0.99026518  1
  Hg  Hg5  1  0.24234281  0.73088892  0.49026532  1
  Hg  Hg6  1  0.74234302  0.76911114  0.50973462  1
  Hg  Hg7  1  0.75765700  0.23088885  0.00973461  1
  S  S8  1  0.00563218  0.37020628  0.15599953  1
  S  S9  1  0.49436817  0.62979372  0.65599958  1
  S  S10  1  0.99436772  0.87020618  0.34400061  1
  S  S11  1  0.50563195  0.12979379  0.84400051  1
  Cl  Cl12  1  0.01836153  0.87475734  0.86670330  1
  Cl  Cl13  1  0.51836156  0.62524268  0.13329683  1
  Cl  Cl14  1  0.48163847  0.12524265  0.36670317  1
  Cl  Cl15  1  -0.01836157  0.37475736  0.63329672  1
