# generated using pymatgen
data_AgHgSeBr
_symmetry_space_group_name_H-M   'P 1'
_cell_length_a   4.86092132
_cell_length_b   9.89403759
_cell_length_c   10.31982153
_cell_angle_alpha   90.00000057
_cell_angle_beta   90.00000257
_cell_angle_gamma   90.00000140
_symmetry_Int_Tables_number   1
_chemical_formula_structural   AgHgSeBr
_chemical_formula_sum   'Ag4 Hg4 Se4 Br4'
_cell_volume   496.32292350
_cell_formula_units_Z   4
loop_
 _symmetry_equiv_pos_site_id
 _symmetry_equiv_pos_as_xyz
  1  'x, y, z'
loop_
 _atom_site_type_symbol
 _atom_site_label
 _atom_site_symmetry_multiplicity
 _atom_site_fract_x
 _atom_site_fract_y
 _atom_site_fract_z
 _atom_site_occupancy
  Ag  Ag0  1  0.00000001  0.21236557  0.40233245  1
  Ag  Ag1  1  -0.00000006  0.78763442  0.59766754  1
  Ag  Ag2  1  -0.00000004  0.21236560  0.09766760  1
  Ag  Ag3  1  0.00000004  0.78763439  0.90233241  1
  Hg  Hg4  1  0.50000002  0.22128474  0.75000004  1
  Hg  Hg5  1  0.50000000  0.77871525  0.25000000  1
  Hg  Hg6  1  0.50000000  0.49999999  -0.00000000  1
  Hg  Hg7  1  0.49999997  0.50000000  0.49999998  1
  Se  Se8  1  0.49999995  0.24511697  0.99536991  1
  Se  Se9  1  0.50000003  0.75488305  0.00463008  1
  Se  Se10  1  0.49999998  0.75488305  0.49536987  1
  Se  Se11  1  0.50000001  0.24511695  0.50463011  1
  Br  Br12  1  0.00000002  0.01297748  0.75000000  1
  Br  Br13  1  -0.00000001  0.54509265  0.74999998  1
  Br  Br14  1  0.00000009  0.45490736  0.25000005  1
  Br  Br15  1  -0.00000000  0.98702252  0.25000000  1
