# generated using pymatgen
data_AgP3H2O9
_symmetry_space_group_name_H-M   'P 1'
_cell_length_a   6.77326346
_cell_length_b   7.83457362
_cell_length_c   7.71274637
_cell_angle_alpha   110.21265351
_cell_angle_beta   104.98045870
_cell_angle_gamma   101.41999157
_symmetry_Int_Tables_number   1
_chemical_formula_structural   AgP3H2O9
_chemical_formula_sum   'Ag2 P6 H4 O18'
_cell_volume   351.89637147
_cell_formula_units_Z   2
loop_
 _symmetry_equiv_pos_site_id
 _symmetry_equiv_pos_as_xyz
  1  'x, y, z'
loop_
 _atom_site_type_symbol
 _atom_site_label
 _atom_site_symmetry_multiplicity
 _atom_site_fract_x
 _atom_site_fract_y
 _atom_site_fract_z
 _atom_site_occupancy
  Ag  Ag0  1  0.32475114  0.83783881  0.06399776  1
  Ag  Ag1  1  0.67524885  0.16216118  0.93600223  1
  P  P2  1  0.38400844  0.34835721  0.19080933  1
  P  P3  1  0.14735606  0.79564226  0.42349520  1
  P  P4  1  0.16777520  0.45493909  0.49372007  1
  P  P5  1  0.83222480  0.54506091  0.50627992  1
  P  P6  1  0.85264394  0.20435774  0.57650480  1
  P  P7  1  0.61599156  0.65164279  0.80919067  1
  H  H8  1  0.86139099  0.64269160  0.05267400  1
  H  H9  1  0.76560023  0.89447751  0.44570184  1
  H  H10  1  0.23439976  0.10552249  0.55429816  1
  H  H11  1  0.13860901  0.35730840  0.94732600  1
  O  O12  1  0.28405396  0.44320546  0.05712173  1
  O  O13  1  0.41206449  0.16053758  0.08135331  1
  O  O14  1  0.08391232  0.77227064  0.21162507  1
  O  O15  1  0.23415916  0.31515587  0.31106021  1
  O  O16  1  0.92449680  0.42144206  0.33345338  1
  O  O17  1  0.59983806  0.51382420  0.33550080  1
  O  O18  1  0.70231732  0.99470511  0.42782619  1
  O  O19  1  0.06120208  0.24043910  0.51877760  1
  O  O20  1  0.71703109  0.33290056  0.52696917  1
  O  O21  1  0.28296891  0.66709944  0.47303083  1
  O  O22  1  -0.06120208  0.75956090  0.48122240  1
  O  O23  1  0.29768269  0.00529489  0.57217381  1
  O  O24  1  0.40016194  0.48617580  0.66449920  1
  O  O25  1  0.07550320  0.57855794  0.66654662  1
  O  O26  1  0.76584085  0.68484413  0.68893979  1
  O  O27  1  0.91608768  0.22772936  0.78837494  1
  O  O28  1  0.58793551  0.83946242  0.91864668  1
  O  O29  1  0.71594604  0.55679454  0.94287827  1
