# generated using pymatgen
data_AgPCl6
_symmetry_space_group_name_H-M   'P 1'
_cell_length_a   6.91080978
_cell_length_b   6.91064247
_cell_length_c   6.91054664
_cell_angle_alpha   59.99807169
_cell_angle_beta   59.99564292
_cell_angle_gamma   59.99410966
_symmetry_Int_Tables_number   1
_chemical_formula_structural   AgPCl6
_chemical_formula_sum   'Ag1 P1 Cl6'
_cell_volume   233.34838611
_cell_formula_units_Z   1
loop_
 _symmetry_equiv_pos_site_id
 _symmetry_equiv_pos_as_xyz
  1  'x, y, z'
loop_
 _atom_site_type_symbol
 _atom_site_label
 _atom_site_symmetry_multiplicity
 _atom_site_fract_x
 _atom_site_fract_y
 _atom_site_fract_z
 _atom_site_occupancy
  Ag  Ag0  1  0.50000166  0.49999740  0.50000243  1
  P  P1  1  -0.00000016  0.00000028  -0.00000026  1
  Cl  Cl2  1  0.22424291  0.22424325  0.77574550  1
  Cl  Cl3  1  0.22424031  0.77574879  0.22423946  1
  Cl  Cl4  1  0.22424135  0.77577001  0.77576996  1
  Cl  Cl5  1  0.77575815  0.22423065  0.22422945  1
  Cl  Cl6  1  0.77575899  0.22425217  0.77575955  1
  Cl  Cl7  1  0.77575679  0.77575746  0.22425390  1
