# generated using pymatgen
data_AgPO3
_symmetry_space_group_name_H-M   'P 1'
_cell_length_a   6.49613783
_cell_length_b   6.49613787
_cell_length_c   6.49613783
_cell_angle_alpha   41.68985996
_cell_angle_beta   41.68985864
_cell_angle_gamma   41.68986083
_symmetry_Int_Tables_number   1
_chemical_formula_structural   AgPO3
_chemical_formula_sum   'Ag2 P2 O6'
_cell_volume   109.62528626
_cell_formula_units_Z   2
loop_
 _symmetry_equiv_pos_site_id
 _symmetry_equiv_pos_as_xyz
  1  'x, y, z'
loop_
 _atom_site_type_symbol
 _atom_site_label
 _atom_site_symmetry_multiplicity
 _atom_site_fract_x
 _atom_site_fract_y
 _atom_site_fract_z
 _atom_site_occupancy
  Ag  Ag0  1  0.14211287  0.14211287  0.14211288  1
  Ag  Ag1  1  0.85788715  0.85788715  0.85788712  1
  P  P2  1  0.33414182  0.33414189  0.33414179  1
  P  P3  1  0.66585804  0.66585797  0.66585807  1
  O  O4  1  0.66886337  0.05260166  0.44094493  1
  O  O5  1  0.94739837  0.55905510  0.33113671  1
  O  O6  1  0.55905509  0.33113669  0.94739839  1
  O  O7  1  0.44094492  0.66886338  0.05260166  1
  O  O8  1  0.05260168  0.44094491  0.66886336  1
  O  O9  1  0.33113670  0.94739837  0.55905510  1
