# generated using pymatgen
data_AgSb3S5
_symmetry_space_group_name_H-M   'P 1'
_cell_length_a   3.95958495
_cell_length_b   7.01761052
_cell_length_c   16.37954537
_cell_angle_alpha   96.53865691
_cell_angle_beta   90.00055513
_cell_angle_gamma   106.38815294
_symmetry_Int_Tables_number   1
_chemical_formula_structural   AgSb3S5
_chemical_formula_sum   'Ag2 Sb6 S10'
_cell_volume   433.55752699
_cell_formula_units_Z   2
loop_
 _symmetry_equiv_pos_site_id
 _symmetry_equiv_pos_as_xyz
  1  'x, y, z'
loop_
 _atom_site_type_symbol
 _atom_site_label
 _atom_site_symmetry_multiplicity
 _atom_site_fract_x
 _atom_site_fract_y
 _atom_site_fract_z
 _atom_site_occupancy
  Ag  Ag0  1  0.49999999  0.00000001  0.50000000  1
  Ag  Ag1  1  -0.00000000  0.00000001  0.00000000  1
  Sb  Sb2  1  0.78524206  0.57048147  0.60526188  1
  Sb  Sb3  1  0.21475770  0.42951853  0.39473812  1
  Sb  Sb4  1  0.52529105  0.05055624  0.78679499  1
  Sb  Sb5  1  0.47470869  0.94944377  0.21320501  1
  Sb  Sb6  1  0.26095491  0.52190466  0.88801748  1
  Sb  Sb7  1  0.73904500  0.47809534  0.11198252  1
  S  S8  1  0.15477277  0.30953507  0.53355383  1
  S  S9  1  0.84522699  0.69046492  0.46644617  1
  S  S10  1  0.42617797  0.85232893  0.63648074  1
  S  S11  1  0.57382169  0.14767106  0.36351926  1
  S  S12  1  0.15226123  0.30446668  0.74600481  1
  S  S13  1  0.84773881  0.69553333  0.25399519  1
  S  S14  1  0.91103319  0.82209159  0.85554260  1
  S  S15  1  0.08896690  0.17790842  0.14445740  1
  S  S16  1  0.35016164  0.70025405  0.06005584  1
  S  S17  1  0.64983844  0.29974593  0.93994416  1
