# generated using pymatgen
data_AgSbF7
_symmetry_space_group_name_H-M   'P 1'
_cell_length_a   5.63831046
_cell_length_b   8.68128990
_cell_length_c   12.42922967
_cell_angle_alpha   67.97547440
_cell_angle_beta   90.00002046
_cell_angle_gamma   90.00014754
_symmetry_Int_Tables_number   1
_chemical_formula_structural   AgSbF7
_chemical_formula_sum   'Ag4 Sb4 F28'
_cell_volume   563.98579218
_cell_formula_units_Z   4
loop_
 _symmetry_equiv_pos_site_id
 _symmetry_equiv_pos_as_xyz
  1  'x, y, z'
loop_
 _atom_site_type_symbol
 _atom_site_label
 _atom_site_symmetry_multiplicity
 _atom_site_fract_x
 _atom_site_fract_y
 _atom_site_fract_z
 _atom_site_occupancy
  Ag  Ag0  1  0.29318492  0.85486087  0.71871449  1
  Ag  Ag1  1  0.79319232  0.14513609  0.78128924  1
  Ag  Ag2  1  0.70681388  0.14514005  0.28128708  1
  Ag  Ag3  1  0.20680629  0.85483837  0.21873021  1
  Sb  Sb4  1  0.20441811  0.28719386  0.44186225  1
  Sb  Sb5  1  0.70442231  0.71280544  0.05814755  1
  Sb  Sb6  1  0.79557606  0.71280441  0.55815359  1
  Sb  Sb7  1  0.29558705  0.28718446  0.94185999  1
  F  F8  1  0.58139322  0.98147713  0.74084650  1
  F  F9  1  0.08144579  0.01852330  0.75914859  1
  F  F10  1  0.41857067  0.01852594  0.25914660  1
  F  F11  1  0.91859153  0.98148000  0.24084830  1
  F  F12  1  0.38339485  0.31215590  0.56306120  1
  F  F13  1  0.88337727  0.68784938  0.93694184  1
  F  F14  1  0.61663423  0.68784859  0.43694848  1
  F  F15  1  0.11659791  0.31215408  0.06305366  1
  F  F16  1  0.46736299  0.26144606  0.81132565  1
  F  F17  1  0.96739694  0.73857641  0.68866504  1
  F  F18  1  0.53261713  0.73855348  0.18866853  1
  F  F19  1  0.03264504  0.26144077  0.31132949  1
  F  F20  1  0.00760322  0.30177736  0.84923861  1
  F  F21  1  0.50757246  0.69825400  0.65075497  1
  F  F22  1  -0.00758877  0.69822714  0.15075568  1
  F  F23  1  0.49240727  0.30177520  0.34924737  1
  F  F24  1  0.24715220  0.05100127  0.00418695  1
  F  F25  1  0.74714909  0.94899408  0.49580112  1
  F  F26  1  0.75284799  0.94898878  0.99580870  1
  F  F27  1  0.25284978  0.05100590  0.50419984  1
  F  F28  1  0.33129263  0.52043347  0.86419507  1
  F  F29  1  0.83130675  0.47956281  0.63578984  1
  F  F30  1  0.66869222  0.47955510  0.13579116  1
  F  F31  1  0.16870192  0.52043374  0.36420386  1
  F  F32  1  0.58805372  0.26237467  0.02234885  1
  F  F33  1  0.08801398  0.73762375  0.47765215  1
  F  F34  1  0.41197342  0.73762436  0.97764552  1
  F  F35  1  0.91194360  0.26237379  0.52235201  1
