# generated using pymatgen
data_AgSeF6
_symmetry_space_group_name_H-M   'P 1'
_cell_length_a   5.26627710
_cell_length_b   5.30842287
_cell_length_c   10.58679709
_cell_angle_alpha   76.45841764
_cell_angle_beta   76.70839871
_cell_angle_gamma   60.66959555
_symmetry_Int_Tables_number   1
_chemical_formula_structural   AgSeF6
_chemical_formula_sum   'Ag2 Se2 F12'
_cell_volume   248.52005876
_cell_formula_units_Z   2
loop_
 _symmetry_equiv_pos_site_id
 _symmetry_equiv_pos_as_xyz
  1  'x, y, z'
loop_
 _atom_site_type_symbol
 _atom_site_label
 _atom_site_symmetry_multiplicity
 _atom_site_fract_x
 _atom_site_fract_y
 _atom_site_fract_z
 _atom_site_occupancy
  Ag  Ag0  1  -0.00000114  -0.00000021  0.00000099  1
  Ag  Ag1  1  0.49999963  0.50000132  0.49999932  1
  Se  Se2  1  0.71766516  0.77224640  0.75001109  1
  Se  Se3  1  0.28233778  0.22774713  0.24998828  1
  F  F4  1  0.69659341  0.45287695  0.85375889  1
  F  F5  1  0.30340558  0.54712183  0.14624253  1
  F  F6  1  0.96426771  0.75525521  0.86333851  1
  F  F7  1  0.03573391  0.24474558  0.13666230  1
  F  F8  1  0.47503142  0.78055538  0.64068738  1
  F  F9  1  0.52496404  0.21944744  0.35931187  1
  F  F10  1  0.73416134  0.11783797  0.63282573  1
  F  F11  1  0.26583872  0.88216483  0.36717335  1
  F  F12  1  0.36878965  0.01619721  0.86298540  1
  F  F13  1  0.63120759  0.98380522  0.13701530  1
  F  F14  1  0.04011128  0.53129716  0.64664164  1
  F  F15  1  0.95989290  0.46870257  0.35335741  1
