# generated using pymatgen
data_AgSe4Cl
_symmetry_space_group_name_H-M   'P 1'
_cell_length_a   7.14637101
_cell_length_b   6.17636785
_cell_length_c   6.15111630
_cell_angle_alpha   69.08336119
_cell_angle_beta   126.05498525
_cell_angle_gamma   126.51237363
_symmetry_Int_Tables_number   1
_chemical_formula_structural   AgSe4Cl
_chemical_formula_sum   'Ag1 Se4 Cl1'
_cell_volume   176.40568717
_cell_formula_units_Z   1
loop_
 _symmetry_equiv_pos_site_id
 _symmetry_equiv_pos_as_xyz
  1  'x, y, z'
loop_
 _atom_site_type_symbol
 _atom_site_label
 _atom_site_symmetry_multiplicity
 _atom_site_fract_x
 _atom_site_fract_y
 _atom_site_fract_z
 _atom_site_occupancy
  Ag  Ag0  1  0.27608436  0.63744232  0.62833680  1
  Se  Se1  1  0.31843443  -0.00898291  -0.00464758  1
  Se  Se2  1  0.09841602  -0.02625480  0.50962655  1
  Se  Se3  1  -0.58804515  -0.54902254  -0.55214236  1
  Se  Se4  1  0.09725455  0.50646045  -0.02585376  1
  Cl  Cl5  1  -0.20214420  -0.05964252  -0.05531965  1
