# generated using pymatgen
data_AgSO4
_symmetry_space_group_name_H-M   'P 1'
_cell_length_a   7.61164209
_cell_length_b   7.61016298
_cell_length_c   7.61054314
_cell_angle_alpha   144.24607681
_cell_angle_beta   144.24207754
_cell_angle_gamma   51.46377535
_symmetry_Int_Tables_number   1
_chemical_formula_structural   AgSO4
_chemical_formula_sum   'Ag2 S2 O8'
_cell_volume   149.70749078
_cell_formula_units_Z   2
loop_
 _symmetry_equiv_pos_site_id
 _symmetry_equiv_pos_as_xyz
  1  'x, y, z'
loop_
 _atom_site_type_symbol
 _atom_site_label
 _atom_site_symmetry_multiplicity
 _atom_site_fract_x
 _atom_site_fract_y
 _atom_site_fract_z
 _atom_site_occupancy
  Ag  Ag0  1  0.50011054  0.50016898  -0.00010448  1
  Ag  Ag1  1  0.24988923  0.74983110  0.50010412  1
  S  S2  1  -0.00007760  -0.00004262  -0.00002338  1
  S  S3  1  0.75007515  0.25004116  0.50002076  1
  O  O4  1  0.72343679  0.08903543  0.93653554  1
  O  O5  1  0.59748826  0.46312413  0.43657624  1
  O  O6  1  0.53697258  0.97347083  0.13442287  1
  O  O7  1  0.91094309  0.84757012  0.63446252  1
  O  O8  1  0.21307098  0.27659541  0.36566105  1
  O  O9  1  0.83903985  0.40239029  0.86545601  1
  O  O10  1  0.02650018  0.16098100  0.56344241  1
  O  O11  1  0.15255094  0.78683418  0.06344634  1
