# generated using pymatgen
data_Al2Ag2Bi2S3F8
_symmetry_space_group_name_H-M   'P 1'
_cell_length_a   6.89922593
_cell_length_b   6.89923566
_cell_length_c   19.43985364
_cell_angle_alpha   89.99999728
_cell_angle_beta   90.00000067
_cell_angle_gamma   120.00054493
_symmetry_Int_Tables_number   1
_chemical_formula_structural   Al2Ag2Bi2S3F8
_chemical_formula_sum   'Al4 Ag4 Bi4 S6 F16'
_cell_volume   801.35063330
_cell_formula_units_Z   2
loop_
 _symmetry_equiv_pos_site_id
 _symmetry_equiv_pos_as_xyz
  1  'x, y, z'
loop_
 _atom_site_type_symbol
 _atom_site_label
 _atom_site_symmetry_multiplicity
 _atom_site_fract_x
 _atom_site_fract_y
 _atom_site_fract_z
 _atom_site_occupancy
  Al  Al0  1  0.66666472  0.33333557  0.92730290  1
  Al  Al1  1  0.66666466  0.33333543  0.57269705  1
  Al  Al2  1  0.33333502  0.66666518  0.42730288  1
  Al  Al3  1  0.33333502  0.66666510  0.07269709  1
  Ag  Ag4  1  0.66666812  0.33333730  0.75000000  1
  Ag  Ag5  1  0.33333704  0.66666829  0.25000000  1
  Ag  Ag6  1  0.00000478  0.00000202  0.74999999  1
  Ag  Ag7  1  0.00000188  0.00000516  0.25000001  1
  Bi  Bi8  1  0.33333341  0.66666648  0.84149581  1
  Bi  Bi9  1  0.33333339  0.66666648  0.65850419  1
  Bi  Bi10  1  0.66666638  0.33333354  0.34149582  1
  Bi  Bi11  1  0.66666639  0.33333352  0.15850419  1
  S  S12  1  0.62477868  0.67085965  0.75000000  1
  S  S13  1  0.32914309  0.95391951  0.74999999  1
  S  S14  1  0.04607810  0.37521972  0.75000000  1
  S  S15  1  0.67086001  0.62477854  0.25000000  1
  S  S16  1  0.95391978  0.32914279  0.25000000  1
  S  S17  1  0.37521997  0.04607777  0.25000001  1
  F  F18  1  0.66665941  0.33333707  0.01423053  1
  F  F19  1  0.66665941  0.33333710  0.48576949  1
  F  F20  1  0.33333705  0.66665925  0.51423038  1
  F  F21  1  0.33333708  0.66665928  -0.01423037  1
  F  F22  1  0.61705419  0.08024760  0.89640332  1
  F  F23  1  0.91975346  0.53681043  0.89640280  1
  F  F24  1  0.46318948  0.38294293  0.89640086  1
  F  F25  1  0.61705420  0.08024756  0.60359666  1
  F  F26  1  0.91975347  0.53681042  0.60359721  1
  F  F27  1  0.46318941  0.38294288  0.60359914  1
  F  F28  1  0.08024806  0.61705428  0.39640332  1
  F  F29  1  0.53681029  0.91975290  0.39640291  1
  F  F30  1  0.38294290  0.46318958  0.39640090  1
  F  F31  1  0.08024797  0.61705421  0.10359669  1
  F  F32  1  0.53681029  0.91975290  0.10359712  1
  F  F33  1  0.38294289  0.46318955  0.10359911  1
