# generated using pymatgen
data_Al2Ag2Bi2Cl8O3
_symmetry_space_group_name_H-M   'P 1'
_cell_length_a   6.56295333
_cell_length_b   6.56294709
_cell_length_c   22.84535519
_cell_angle_alpha   90.00000064
_cell_angle_beta   89.99999929
_cell_angle_gamma   120.00002595
_symmetry_Int_Tables_number   1
_chemical_formula_structural   Al2Ag2Bi2Cl8O3
_chemical_formula_sum   'Al4 Ag4 Bi4 Cl16 O6'
_cell_volume   852.17080615
_cell_formula_units_Z   2
loop_
 _symmetry_equiv_pos_site_id
 _symmetry_equiv_pos_as_xyz
  1  'x, y, z'
loop_
 _atom_site_type_symbol
 _atom_site_label
 _atom_site_symmetry_multiplicity
 _atom_site_fract_x
 _atom_site_fract_y
 _atom_site_fract_z
 _atom_site_occupancy
  Al  Al0  1  0.66666679  0.33333341  0.91438308  1
  Al  Al1  1  0.66666684  0.33333340  0.58561691  1
  Al  Al2  1  0.33333313  0.66666643  0.41438310  1
  Al  Al3  1  0.33333313  0.66666643  0.08561690  1
  Ag  Ag4  1  0.66666687  0.33333343  0.74999999  1
  Ag  Ag5  1  0.33333414  0.66666753  0.25000001  1
  Ag  Ag6  1  0.00000063  0.00000089  0.75000001  1
  Ag  Ag7  1  -0.00000012  -0.00000030  0.24999999  1
  Bi  Bi8  1  0.33333336  0.66666683  0.81604857  1
  Bi  Bi9  1  0.33333337  0.66666681  0.68395146  1
  Bi  Bi10  1  0.66666651  0.33333331  0.31604854  1
  Bi  Bi11  1  0.66666653  0.33333330  0.18395143  1
  Cl  Cl12  1  0.66666630  0.33333279  0.00655668  1
  Cl  Cl13  1  0.66666640  0.33333286  0.49344334  1
  Cl  Cl14  1  0.33333380  0.66666718  0.50655667  1
  Cl  Cl15  1  0.33333372  0.66666712  0.99344331  1
  Cl  Cl16  1  0.76276721  0.09156896  0.87543667  1
  Cl  Cl17  1  0.90843077  0.67119847  0.87543680  1
  Cl  Cl18  1  0.32880136  0.23723210  0.87543674  1
  Cl  Cl19  1  0.76276734  0.09156908  0.62456339  1
  Cl  Cl20  1  0.90843067  0.67119845  0.62456327  1
  Cl  Cl21  1  0.32880141  0.23723197  0.62456331  1
  Cl  Cl22  1  0.09156919  0.76276792  0.37543675  1
  Cl  Cl23  1  0.67119807  0.90843075  0.37543662  1
  Cl  Cl24  1  0.23723240  0.32880158  0.37543674  1
  Cl  Cl25  1  0.09156908  0.76276782  0.12456320  1
  Cl  Cl26  1  0.67119814  0.90843092  0.12456330  1
  Cl  Cl27  1  0.23723254  0.32880160  0.12456322  1
  O  O28  1  0.58327472  0.66988825  0.75000002  1
  O  O29  1  0.33011190  0.91338676  0.75000001  1
  O  O30  1  0.08661393  0.41672472  0.75000002  1
  O  O31  1  0.66988871  0.58327512  0.24999999  1
  O  O32  1  0.91338596  0.33011102  0.24999999  1
  O  O33  1  0.41672521  0.08661307  0.24999998  1
