# generated using pymatgen
data_Al2CdCl6O
_symmetry_space_group_name_H-M   'P 1'
_cell_length_a   13.93778888
_cell_length_b   9.01226280
_cell_length_c   12.40777063
_cell_angle_alpha   55.15135328
_cell_angle_beta   90.00000690
_cell_angle_gamma   90.00000890
_symmetry_Int_Tables_number   1
_chemical_formula_structural   Al2CdCl6O
_chemical_formula_sum   'Al8 Cd4 Cl24 O4'
_cell_volume   1279.04862305
_cell_formula_units_Z   4
loop_
 _symmetry_equiv_pos_site_id
 _symmetry_equiv_pos_as_xyz
  1  'x, y, z'
loop_
 _atom_site_type_symbol
 _atom_site_label
 _atom_site_symmetry_multiplicity
 _atom_site_fract_x
 _atom_site_fract_y
 _atom_site_fract_z
 _atom_site_occupancy
  Al  Al0  1  0.07307113  0.63510349  0.72368584  1
  Al  Al1  1  0.42692874  0.63510350  0.22368585  1
  Al  Al2  1  0.03229020  0.07401933  0.56027549  1
  Al  Al3  1  0.92692887  0.36489653  0.27631414  1
  Al  Al4  1  0.96770984  0.92598070  0.43972447  1
  Al  Al5  1  0.46770980  0.07401934  0.06027554  1
  Al  Al6  1  0.57307120  0.36489649  0.77631414  1
  Al  Al7  1  0.53229021  0.92598066  0.93972451  1
  Cd  Cd8  1  0.99826780  0.20109173  0.83960924  1
  Cd  Cd9  1  0.50173224  0.20109180  0.33960934  1
  Cd  Cd10  1  0.00173221  0.79890827  0.16039076  1
  Cd  Cd11  1  0.49826782  0.79890825  0.66039069  1
  Cl  Cl12  1  0.09972850  0.47308134  0.64510329  1
  Cl  Cl13  1  0.30748165  0.66256995  0.31450195  1
  Cl  Cl14  1  0.12921642  -0.01056950  0.98831264  1
  Cl  Cl15  1  0.80748186  0.33743000  0.18549786  1
  Cl  Cl16  1  0.62921648  0.01056952  0.51168735  1
  Cl  Cl17  1  0.04329489  0.52264738  0.13939541  1
  Cl  Cl18  1  0.95670508  0.47735266  0.86060452  1
  Cl  Cl19  1  0.19251812  0.66256998  0.81450216  1
  Cl  Cl20  1  0.45670512  0.52264728  0.63939549  1
  Cl  Cl21  1  0.83604287  0.80059909  0.46278385  1
  Cl  Cl22  1  0.06427409  -0.07663511  0.30272229  1
  Cl  Cl23  1  0.33604283  0.19940104  0.03721600  1
  Cl  Cl24  1  0.56427395  0.07663508  0.19727775  1
  Cl  Cl25  1  0.87078358  0.01056948  0.01168735  1
  Cl  Cl26  1  0.43572608  -0.07663508  0.80272228  1
  Cl  Cl27  1  0.16395716  0.19940095  0.53721608  1
  Cl  Cl28  1  0.40027159  0.47308131  0.14510327  1
  Cl  Cl29  1  0.37078359  -0.01056950  0.48831264  1
  Cl  Cl30  1  0.93572596  0.07663510  0.69727770  1
  Cl  Cl31  1  0.66395717  0.80059887  0.96278415  1
  Cl  Cl32  1  0.54329470  0.47735269  0.36060475  1
  Cl  Cl33  1  0.90027152  0.52691866  0.35489671  1
  Cl  Cl34  1  0.69251812  0.33743001  0.68549782  1
  Cl  Cl35  1  0.59972860  0.52691873  0.85489663  1
  O  O36  1  0.96924589  0.14945224  0.40849526  1
  O  O37  1  0.53075417  0.14945224  0.90849526  1
  O  O38  1  0.46924581  0.85054774  0.09150481  1
  O  O39  1  0.03075414  0.85054777  0.59150472  1
