# generated using pymatgen
data_Al2Cr3CuSe8
_symmetry_space_group_name_H-M   'P 1'
_cell_length_a   7.45422031
_cell_length_b   7.45422349
_cell_length_c   7.45410371
_cell_angle_alpha   60.04544720
_cell_angle_beta   60.04542505
_cell_angle_gamma   60.04596705
_symmetry_Int_Tables_number   1
_chemical_formula_structural   Al2Cr3CuSe8
_chemical_formula_sum   'Al2 Cr3 Cu1 Se8'
_cell_volume   293.17965996
_cell_formula_units_Z   1
loop_
 _symmetry_equiv_pos_site_id
 _symmetry_equiv_pos_as_xyz
  1  'x, y, z'
loop_
 _atom_site_type_symbol
 _atom_site_label
 _atom_site_symmetry_multiplicity
 _atom_site_fract_x
 _atom_site_fract_y
 _atom_site_fract_z
 _atom_site_occupancy
  Al  Al0  1  0.00635522  0.00635536  0.00635504  1
  Al  Al1  1  0.62434991  0.62435075  0.62435134  1
  Cr  Cr2  1  0.48823458  0.00356833  0.00356823  1
  Cr  Cr3  1  0.00356924  0.00356937  0.48823103  1
  Cr  Cr4  1  0.00356838  0.48823384  0.00356821  1
  Cu  Cu5  1  0.37451411  0.37451396  0.37451254  1
  Se  Se6  1  0.22255130  0.75857576  0.75857525  1
  Se  Se7  1  0.75857590  0.75857627  0.22255015  1
  Se  Se8  1  0.75857565  0.22255137  0.75857545  1
  Se  Se9  1  0.75812475  0.75812465  0.75812522  1
  Se  Se10  1  0.77263909  0.24387593  0.24387873  1
  Se  Se11  1  0.24387686  0.24387665  0.77263916  1
  Se  Se12  1  0.24387586  0.77263895  0.24387867  1
  Se  Se13  1  0.24118915  0.24118881  0.24119099  1
