# generated using pymatgen
data_Al2PbCl6O
_symmetry_space_group_name_H-M   'P 1'
_cell_length_a   12.61261507
_cell_length_b   9.62385128
_cell_length_c   12.90193208
_cell_angle_alpha   49.73683932
_cell_angle_beta   90.00000156
_cell_angle_gamma   90.00000284
_symmetry_Int_Tables_number   1
_chemical_formula_structural   Al2PbCl6O
_chemical_formula_sum   'Al8 Pb4 Cl24 O4'
_cell_volume   1195.03648460
_cell_formula_units_Z   4
loop_
 _symmetry_equiv_pos_site_id
 _symmetry_equiv_pos_as_xyz
  1  'x, y, z'
loop_
 _atom_site_type_symbol
 _atom_site_label
 _atom_site_symmetry_multiplicity
 _atom_site_fract_x
 _atom_site_fract_y
 _atom_site_fract_z
 _atom_site_occupancy
  Al  Al0  1  0.10627694  0.64178813  0.71933671  1
  Al  Al1  1  0.39372308  0.64178819  0.21933667  1
  Al  Al2  1  0.00588329  0.04850521  0.57591316  1
  Al  Al3  1  0.89372305  0.35821187  0.28066330  1
  Al  Al4  1  0.99411670  0.95149480  0.42408684  1
  Al  Al5  1  0.49411670  0.04850521  0.07591319  1
  Al  Al6  1  0.60627692  0.35821179  0.78066335  1
  Al  Al7  1  0.50588329  0.95149476  0.92408683  1
  Pb  Pb8  1  0.97581941  0.21769679  0.79435562  1
  Pb  Pb9  1  0.52418059  0.21769675  0.29435560  1
  Pb  Pb10  1  0.02418059  0.78230320  0.20564439  1
  Pb  Pb11  1  0.47581942  0.78230326  0.70564439  1
  Cl  Cl12  1  0.15840215  0.52606863  0.63094183  1
  Cl  Cl13  1  0.27370895  0.67322329  0.31947568  1
  Cl  Cl14  1  0.13722910  0.00700442  0.96688684  1
  Cl  Cl15  1  0.77370896  0.32677673  0.18052430  1
  Cl  Cl16  1  0.63722911  0.99299560  0.53311311  1
  Cl  Cl17  1  0.01946977  0.53932286  0.13945019  1
  Cl  Cl18  1  0.98053024  0.46067712  0.86054983  1
  Cl  Cl19  1  0.22629106  0.67322328  0.81947567  1
  Cl  Cl20  1  0.48053024  0.53932288  0.63945019  1
  Cl  Cl21  1  0.88156904  0.77190321  0.44357270  1
  Cl  Cl22  1  0.09950318  0.04267723  0.26083072  1
  Cl  Cl23  1  0.38156904  0.22809677  0.05642727  1
  Cl  Cl24  1  0.59950315  0.95732274  0.23916931  1
  Cl  Cl25  1  0.86277091  0.99299558  0.03311317  1
  Cl  Cl26  1  0.40049684  0.04267726  0.76083070  1
  Cl  Cl27  1  0.11843095  0.22809681  0.55642727  1
  Cl  Cl28  1  0.34159779  0.52606856  0.13094189  1
  Cl  Cl29  1  0.36277091  0.00700439  0.46688686  1
  Cl  Cl30  1  0.90049683  0.95732275  0.73916930  1
  Cl  Cl31  1  0.61843097  0.77190324  0.94357271  1
  Cl  Cl32  1  0.51946976  0.46067711  0.36054982  1
  Cl  Cl33  1  0.84159783  0.47393141  0.36905815  1
  Cl  Cl34  1  0.72629105  0.32677670  0.68052432  1
  Cl  Cl35  1  0.65840220  0.47393143  0.86905812  1
  O  O36  1  0.94865235  0.13941171  0.41343221  1
  O  O37  1  0.55134770  0.13941191  0.91343208  1
  O  O38  1  0.44865230  0.86058810  0.08656791  1
  O  O39  1  0.05134763  0.86058829  0.58656779  1
