# generated using pymatgen
data_Al2PbO4
_symmetry_space_group_name_H-M   'P 1'
_cell_length_a   5.14165474
_cell_length_b   5.14165414
_cell_length_c   8.95761611
_cell_angle_alpha   90.00000152
_cell_angle_beta   89.99999440
_cell_angle_gamma   121.19697790
_symmetry_Int_Tables_number   1
_chemical_formula_structural   Al2PbO4
_chemical_formula_sum   'Al4 Pb2 O8'
_cell_volume   202.56443122
_cell_formula_units_Z   2
loop_
 _symmetry_equiv_pos_site_id
 _symmetry_equiv_pos_as_xyz
  1  'x, y, z'
loop_
 _atom_site_type_symbol
 _atom_site_label
 _atom_site_symmetry_multiplicity
 _atom_site_fract_x
 _atom_site_fract_y
 _atom_site_fract_z
 _atom_site_occupancy
  Al  Al0  1  0.76845750  0.23302784  0.49999999  1
  Al  Al1  1  0.23154248  0.76697214  0.50000001  1
  Al  Al2  1  0.76697215  0.23154251  -0.00000001  1
  Al  Al3  1  0.23302787  0.76845754  -0.00000000  1
  Pb  Pb4  1  0.50000006  0.49999998  0.74999996  1
  Pb  Pb5  1  0.49999993  0.49999993  0.24999999  1
  O  O6  1  0.38184153  0.16557068  0.50000000  1
  O  O7  1  0.61815845  0.83442931  0.50000003  1
  O  O8  1  0.83442937  0.61815856  -0.00000000  1
  O  O9  1  0.16557066  0.38184147  0.00000002  1
  O  O10  1  0.50000003  0.00000006  0.85712365  1
  O  O11  1  -0.00000009  0.49999998  0.64287633  1
  O  O12  1  0.50000001  0.00000000  0.14287634  1
  O  O13  1  0.00000006  0.50000000  0.35712369  1
