# generated using pymatgen
data_Al2ZnO4
_symmetry_space_group_name_H-M   'P 1'
_cell_length_a   4.52507374
_cell_length_b   4.52507090
_cell_length_c   5.31444312
_cell_angle_alpha   115.19695516
_cell_angle_beta   115.19692288
_cell_angle_gamma   89.99909964
_symmetry_Int_Tables_number   1
_chemical_formula_structural   Al2ZnO4
_chemical_formula_sum   'Al2 Zn1 O4'
_cell_volume   86.88663899
_cell_formula_units_Z   1
loop_
 _symmetry_equiv_pos_site_id
 _symmetry_equiv_pos_as_xyz
  1  'x, y, z'
loop_
 _atom_site_type_symbol
 _atom_site_label
 _atom_site_symmetry_multiplicity
 _atom_site_fract_x
 _atom_site_fract_y
 _atom_site_fract_z
 _atom_site_occupancy
  Al  Al0  1  0.24999283  0.74999191  0.49999527  1
  Al  Al1  1  0.49999639  0.49999742  -0.00000308  1
  Zn  Zn2  1  0.00000032  -0.00000088  -0.00000047  1
  O  O3  1  0.35416783  0.42579702  0.23620616  1
  O  O4  1  0.18958710  0.64583013  0.76379085  1
  O  O5  1  0.57420722  0.11796602  0.76379610  1
  O  O6  1  0.88204832  0.81041837  0.23621517  1
