# generated using pymatgen
data_Al3Cu4Si3IO12
_symmetry_space_group_name_H-M   'P 1'
_cell_length_a   8.67430607
_cell_length_b   8.67429721
_cell_length_c   8.67431376
_cell_angle_alpha   90.00002015
_cell_angle_beta   90.00018937
_cell_angle_gamma   90.00017960
_symmetry_Int_Tables_number   1
_chemical_formula_structural   Al3Cu4Si3IO12
_chemical_formula_sum   'Al6 Cu8 Si6 I2 O24'
_cell_volume   652.68580496
_cell_formula_units_Z   2
loop_
 _symmetry_equiv_pos_site_id
 _symmetry_equiv_pos_as_xyz
  1  'x, y, z'
loop_
 _atom_site_type_symbol
 _atom_site_label
 _atom_site_symmetry_multiplicity
 _atom_site_fract_x
 _atom_site_fract_y
 _atom_site_fract_z
 _atom_site_occupancy
  Al  Al0  1  0.25000017  0.00000009  0.50000062  1
  Al  Al1  1  0.74999947  0.00000012  0.50000033  1
  Al  Al2  1  0.49999873  0.25000056  -0.00000033  1
  Al  Al3  1  0.49999870  0.75000093  0.00000054  1
  Al  Al4  1  0.00000085  0.50000106  0.25000022  1
  Al  Al5  1  0.00000069  0.50000141  0.75000050  1
  Cu  Cu6  1  0.16713824  0.16713848  0.16713828  1
  Cu  Cu7  1  0.83286124  0.83286161  0.16713878  1
  Cu  Cu8  1  0.83286154  0.16713844  0.83286195  1
  Cu  Cu9  1  0.66713798  0.66713838  0.66713833  1
  Cu  Cu10  1  0.16713844  0.83286220  0.83286168  1
  Cu  Cu11  1  0.33286377  0.33286343  0.66713655  1
  Cu  Cu12  1  0.66714116  0.33285863  0.33285839  1
  Cu  Cu13  1  0.33286468  0.66713541  0.33286463  1
  Si  Si14  1  0.25000441  0.50000893  0.00000140  1
  Si  Si15  1  0.74999455  0.50000678  -0.00000191  1
  Si  Si16  1  0.00000830  0.24999931  0.50000064  1
  Si  Si17  1  0.00000842  0.75000442  0.50000468  1
  Si  Si18  1  0.49999422  -0.00000551  0.24999823  1
  Si  Si19  1  0.49998891  -0.00000051  0.75000413  1
  I  I20  1  -0.00000025  -0.00000371  0.00000013  1
  I  I21  1  0.50000145  0.50000004  0.50000060  1
  O  O22  1  0.13348512  0.14458639  0.41619292  1
  O  O23  1  0.86650758  0.85541971  0.41619184  1
  O  O24  1  0.86650726  0.14458075  0.58380862  1
  O  O25  1  0.41619236  0.13349026  0.14458263  1
  O  O26  1  0.64458759  0.63348401  0.91619388  1
  O  O27  1  0.13348285  0.85541288  0.58380545  1
  O  O28  1  0.41619422  0.86651524  0.85541398  1
  O  O29  1  0.35541902  0.36650838  0.91619158  1
  O  O30  1  0.58380773  0.86651314  0.14458431  1
  O  O31  1  0.64458169  0.36650980  0.08380772  1
  O  O32  1  0.58380874  0.13349063  0.85541765  1
  O  O33  1  0.35541205  0.63348404  0.08380647  1
  O  O34  1  0.14457975  0.41619090  0.13349184  1
  O  O35  1  0.63349450  0.91619127  0.64457785  1
  O  O36  1  0.14458132  0.58380696  0.86651051  1
  O  O37  1  0.36651362  0.08380741  0.64458498  1
  O  O38  1  0.85541788  0.58380699  0.13348997  1
  O  O39  1  0.63349245  0.08380855  0.35542038  1
  O  O40  1  0.85541847  0.41619129  0.86650906  1
  O  O41  1  0.36651369  0.91619339  0.35541471  1
  O  O42  1  0.91619134  0.64458169  0.63349032  1
  O  O43  1  0.91619163  0.35541909  0.36650915  1
  O  O44  1  0.08380625  0.35541570  0.63348697  1
  O  O45  1  0.08380720  0.64458104  0.36650882  1
