# generated using pymatgen
data_Al4B2S9
_symmetry_space_group_name_H-M   'P 1'
_cell_length_a   6.98583586
_cell_length_b   9.93164971
_cell_length_c   19.23463342
_cell_angle_alpha   90.66595081
_cell_angle_beta   90.00061211
_cell_angle_gamma   69.40835945
_symmetry_Int_Tables_number   1
_chemical_formula_structural   Al4B2S9
_chemical_formula_sum   'Al16 B8 S36'
_cell_volume   1249.15839831
_cell_formula_units_Z   4
loop_
 _symmetry_equiv_pos_site_id
 _symmetry_equiv_pos_as_xyz
  1  'x, y, z'
loop_
 _atom_site_type_symbol
 _atom_site_label
 _atom_site_symmetry_multiplicity
 _atom_site_fract_x
 _atom_site_fract_y
 _atom_site_fract_z
 _atom_site_occupancy
  Al  Al0  1  0.19026294  0.61948867  0.15876710  1
  Al  Al1  1  0.80973705  0.38051130  0.84123290  1
  Al  Al2  1  0.32744390  0.34513246  0.35437753  1
  Al  Al3  1  0.67255612  0.65486750  0.64562248  1
  Al  Al4  1  0.42848284  0.14300514  0.06626495  1
  Al  Al5  1  0.57151719  0.85699483  0.93373505  1
  Al  Al6  1  0.49999999  0.49999999  -0.00000000  1
  Al  Al7  1  -0.00000001  0.49999999  0.00000000  1
  Al  Al8  1  0.25682375  0.00495797  0.24728038  1
  Al  Al9  1  0.73823221  0.00494218  0.24728131  1
  Al  Al10  1  0.74317623  -0.00495801  0.75271962  1
  Al  Al11  1  0.26176776  -0.00494220  0.75271869  1
  Al  Al12  1  0.13289648  0.73423635  0.33342893  1
  Al  Al13  1  0.86710351  0.26576362  0.66657108  1
  Al  Al14  1  0.50000000  0.49999998  0.50000000  1
  Al  Al15  1  -0.00000000  0.49999999  0.50000000  1
  B  B16  1  0.62478872  0.75038694  0.12233278  1
  B  B17  1  0.37521130  0.24961304  0.87766722  1
  B  B18  1  0.60945351  0.78110860  0.38510478  1
  B  B19  1  0.39054649  0.21889137  0.61489522  1
  B  B20  1  0.90048692  0.19901827  0.09789929  1
  B  B21  1  0.09951305  0.80098170  0.90210070  1
  B  B22  1  0.87783728  0.24433886  0.37664126  1
  B  B23  1  0.12216273  0.75566110  0.62335875  1
  S  S24  1  0.23718962  0.52566666  0.27134315  1
  S  S25  1  0.76281044  0.47433331  0.72865685  1
  S  S26  1  0.49410631  0.60802415  0.11493878  1
  S  S27  1  0.89787165  0.60808209  0.11492189  1
  S  S28  1  0.50589362  0.39197588  0.88506120  1
  S  S29  1  0.10212834  0.39191783  0.88507813  1
  S  S30  1  0.33575861  0.87254828  0.36518570  1
  S  S31  1  0.79171386  0.87254289  0.36518306  1
  S  S32  1  0.66424139  0.12745167  0.63481430  1
  S  S33  1  0.20828613  0.12745707  0.63481695  1
  S  S34  1  0.21618853  0.56762663  0.42947970  1
  S  S35  1  0.78381148  0.43237333  0.57052031  1
  S  S36  1  0.15364786  0.13970515  0.13707965  1
  S  S37  1  0.70670832  0.13959914  0.13704952  1
  S  S38  1  0.84635217  0.86029470  0.86292031  1
  S  S39  1  0.29329158  0.86040096  0.86295051  1
  S  S40  1  0.69333226  0.61333811  0.43189265  1
  S  S41  1  0.30666774  0.38666185  0.56810736  1
  S  S42  1  0.15579847  0.68840287  -0.02186898  1
  S  S43  1  0.84420151  0.31159710  0.02186897  1
  S  S44  1  0.41861850  0.16278892  0.27489912  1
  S  S45  1  0.58138146  0.83721105  0.72510088  1
  S  S46  1  0.58025319  0.83948301  0.21181663  1
  S  S47  1  0.41974678  0.16051697  0.78818336  1
  S  S48  1  0.08444188  0.28365333  0.42203606  1
  S  S49  1  0.63192276  0.28365106  0.42203818  1
  S  S50  1  0.91555812  0.71634665  0.57796395  1
  S  S51  1  0.36807727  0.71634889  0.57796182  1
  S  S52  1  0.92126833  0.15746752  0.29231796  1
  S  S53  1  0.07873167  0.84253243  0.70768205  1
  S  S54  1  0.30222412  0.39555221  0.06237908  1
  S  S55  1  0.69777587  0.60444776  0.93762092  1
  S  S56  1  0.07525624  0.84951363  0.22132820  1
  S  S57  1  0.92474373  0.15048634  0.77867180  1
  S  S58  1  0.55547203  0.88866596  0.05101295  1
  S  S59  1  0.44452825  0.11133402  0.94898704  1
