# generated using pymatgen
data_Al4Bi2Se9
_symmetry_space_group_name_H-M   'P 1'
_cell_length_a   7.56449257
_cell_length_b   10.01410477
_cell_length_c   11.14999560
_cell_angle_alpha   90.00000653
_cell_angle_beta   90.00000125
_cell_angle_gamma   90.00000070
_symmetry_Int_Tables_number   1
_chemical_formula_structural   Al4Bi2Se9
_chemical_formula_sum   'Al8 Bi4 Se18'
_cell_volume   844.63024227
_cell_formula_units_Z   2
loop_
 _symmetry_equiv_pos_site_id
 _symmetry_equiv_pos_as_xyz
  1  'x, y, z'
loop_
 _atom_site_type_symbol
 _atom_site_label
 _atom_site_symmetry_multiplicity
 _atom_site_fract_x
 _atom_site_fract_y
 _atom_site_fract_z
 _atom_site_occupancy
  Al  Al0  1  0.50000041  0.14447766  0.83694800  1
  Al  Al1  1  0.50000038  0.85552258  0.16305229  1
  Al  Al2  1  0.50000068  0.64447750  0.66305225  1
  Al  Al3  1  0.50000071  0.35552230  0.33694802  1
  Al  Al4  1  0.24860381  -0.00000004  0.50000010  1
  Al  Al5  1  0.75139632  0.50000007  0.00000001  1
  Al  Al6  1  0.75139643  -0.00000006  0.50000002  1
  Al  Al7  1  0.24860391  0.50000005  0.00000008  1
  Bi  Bi8  1  0.00000057  0.32215926  0.70497306  1
  Bi  Bi9  1  0.00000055  0.67784070  0.29502701  1
  Bi  Bi10  1  0.00000044  0.82215926  0.79502704  1
  Bi  Bi11  1  0.00000045  0.17784081  0.20497306  1
  Se  Se12  1  0.00000011  0.33338629  0.95068414  1
  Se  Se13  1  0.00000012  0.66661377  0.04931594  1
  Se  Se14  1  0.00000012  0.83338620  0.54931598  1
  Se  Se15  1  0.00000012  0.16661376  0.45068411  1
  Se  Se16  1  0.50000016  0.37334110  0.90087083  1
  Se  Se17  1  0.50000019  0.62665901  0.09912931  1
  Se  Se18  1  0.50000026  0.87334106  0.59912926  1
  Se  Se19  1  0.50000022  0.12665885  0.40087087  1
  Se  Se20  1  0.23479542  0.89321682  0.28347018  1
  Se  Se21  1  0.23479547  0.10678322  0.71652997  1
  Se  Se22  1  0.76520512  0.39321675  0.21652994  1
  Se  Se23  1  0.76520526  0.60678316  0.78347008  1
  Se  Se24  1  0.49999767  -0.00000133  -0.00000091  1
  Se  Se25  1  0.49999360  0.50000117  0.49999921  1
  Se  Se26  1  0.23479570  0.39321664  0.21652987  1
  Se  Se27  1  0.23479564  0.60678334  0.78347025  1
  Se  Se28  1  0.76520515  0.89321671  0.28347014  1
  Se  Se29  1  0.76520501  0.10678341  0.71652988  1
