# generated using pymatgen
data_Al4Bi2S9
_symmetry_space_group_name_H-M   'P 1'
_cell_length_a   7.14984475
_cell_length_b   9.49276813
_cell_length_c   10.48329332
_cell_angle_alpha   89.99999783
_cell_angle_beta   90.00000111
_cell_angle_gamma   90.00000034
_symmetry_Int_Tables_number   1
_chemical_formula_structural   Al4Bi2S9
_chemical_formula_sum   'Al8 Bi4 S18'
_cell_volume   711.52018021
_cell_formula_units_Z   2
loop_
 _symmetry_equiv_pos_site_id
 _symmetry_equiv_pos_as_xyz
  1  'x, y, z'
loop_
 _atom_site_type_symbol
 _atom_site_label
 _atom_site_symmetry_multiplicity
 _atom_site_fract_x
 _atom_site_fract_y
 _atom_site_fract_z
 _atom_site_occupancy
  Al  Al0  1  0.49999998  0.14537015  0.83721075  1
  Al  Al1  1  0.49999999  0.85462985  0.16278925  1
  Al  Al2  1  0.49999999  0.64537016  0.66278924  1
  Al  Al3  1  0.49999999  0.35462985  0.33721078  1
  Al  Al4  1  0.25163664  -0.00000000  0.49999998  1
  Al  Al5  1  0.74836333  0.50000000  0.00000003  1
  Al  Al6  1  0.74836334  0.00000000  0.50000003  1
  Al  Al7  1  0.25163666  0.50000000  -0.00000002  1
  Bi  Bi8  1  -0.00000004  0.32767551  0.69825176  1
  Bi  Bi9  1  -0.00000001  0.67232450  0.30174824  1
  Bi  Bi10  1  -0.00000001  0.82767551  0.80174822  1
  Bi  Bi11  1  -0.00000002  0.17232449  0.19825177  1
  S  S12  1  0.00000001  0.33793854  0.94710688  1
  S  S13  1  -0.00000001  0.66206146  0.05289312  1
  S  S14  1  -0.00000002  0.83793856  0.55289311  1
  S  S15  1  0.00000001  0.16206144  0.44710689  1
  S  S16  1  0.50000002  0.37053150  0.90504613  1
  S  S17  1  0.49999995  0.62946851  0.09495388  1
  S  S18  1  0.49999996  0.87053150  0.59495387  1
  S  S19  1  0.50000002  0.12946851  0.40504613  1
  S  S20  1  0.23844715  0.88659701  0.28622311  1
  S  S21  1  0.23844719  0.11340304  0.71377684  1
  S  S22  1  0.76155286  0.38659702  0.21377685  1
  S  S23  1  0.76155282  0.61340303  0.78622321  1
  S  S24  1  0.50000010  -0.00000003  -0.00000002  1
  S  S25  1  0.50000021  0.50000002  0.49999997  1
  S  S26  1  0.23844715  0.38659697  0.21377681  1
  S  S27  1  0.23844712  0.61340298  0.78622314  1
  S  S28  1  0.76155280  0.88659697  0.28622316  1
  S  S29  1  0.76155283  0.11340298  0.71377688  1
