# generated using pymatgen
data_Al5BS9
_symmetry_space_group_name_H-M   'P 1'
_cell_length_a   10.11001789
_cell_length_b   10.11001785
_cell_length_c   10.05590255
_cell_angle_alpha   89.99993486
_cell_angle_beta   90.00006506
_cell_angle_gamma   138.42714650
_symmetry_Int_Tables_number   1
_chemical_formula_structural   Al5BS9
_chemical_formula_sum   'Al10 B2 S18'
_cell_volume   682.04471261
_cell_formula_units_Z   2
loop_
 _symmetry_equiv_pos_site_id
 _symmetry_equiv_pos_as_xyz
  1  'x, y, z'
loop_
 _atom_site_type_symbol
 _atom_site_label
 _atom_site_symmetry_multiplicity
 _atom_site_fract_x
 _atom_site_fract_y
 _atom_site_fract_z
 _atom_site_occupancy
  Al  Al0  1  0.36690705  0.13985019  0.49883822  1
  Al  Al1  1  0.29420847  0.70579153  0.33214871  1
  Al  Al2  1  0.70579162  0.29420837  0.83214875  1
  Al  Al3  1  0.55878230  0.44121770  0.18564564  1
  Al  Al4  1  0.44121765  0.55878234  0.68564586  1
  Al  Al5  1  0.74520286  0.25479714  0.18545024  1
  Al  Al6  1  0.25479722  0.74520278  0.68545047  1
  Al  Al7  1  0.13985020  0.36690704  -0.00116178  1
  Al  Al8  1  0.86014980  0.63309294  0.49883820  1
  Al  Al9  1  0.63309295  0.86014980  -0.00116179  1
  B  B10  1  0.98568338  0.01431662  0.71853786  1
  B  B11  1  0.01431597  0.98568405  0.21853595  1
  S  S12  1  0.18684186  0.81315814  0.43223883  1
  S  S13  1  0.96187288  0.03812712  0.07036098  1
  S  S14  1  0.03812761  0.96187238  0.57035970  1
  S  S15  1  0.45872237  0.54127763  0.06079993  1
  S  S16  1  0.54127772  0.45872227  0.56079987  1
  S  S17  1  0.66883291  0.33116708  0.37072654  1
  S  S18  1  0.33116701  0.66883297  0.87072668  1
  S  S19  1  0.82155672  0.74056825  0.29583138  1
  S  S20  1  0.81315804  0.18684196  0.93223886  1
  S  S21  1  0.65268466  0.34731548  0.04133347  1
  S  S22  1  0.74056855  0.82155691  0.79583102  1
  S  S23  1  0.25943175  0.17844325  0.29583136  1
  S  S24  1  0.17844306  0.25943145  0.79583101  1
  S  S25  1  0.43192907  0.06845399  0.70610813  1
  S  S26  1  0.06845401  0.43192910  0.20610821  1
  S  S27  1  0.56807088  0.93154598  0.20610819  1
  S  S28  1  0.93154599  0.56807089  0.70610811  1
  S  S29  1  0.34731546  0.65268466  0.54133338  1
