# generated using pymatgen
data_AlAgSnS4
_symmetry_space_group_name_H-M   'P 1'
_cell_length_a   6.58299295
_cell_length_b   6.58299794
_cell_length_c   6.58299790
_cell_angle_alpha   127.58696788
_cell_angle_beta   127.58697678
_cell_angle_gamma   77.29531162
_symmetry_Int_Tables_number   1
_chemical_formula_structural   AlAgSnS4
_chemical_formula_sum   'Al1 Ag1 Sn1 S4'
_cell_volume   173.80255344
_cell_formula_units_Z   1
loop_
 _symmetry_equiv_pos_site_id
 _symmetry_equiv_pos_as_xyz
  1  'x, y, z'
loop_
 _atom_site_type_symbol
 _atom_site_label
 _atom_site_symmetry_multiplicity
 _atom_site_fract_x
 _atom_site_fract_y
 _atom_site_fract_z
 _atom_site_occupancy
  Al  Al0  1  0.49999895  0.49999854  -0.00000238  1
  Ag  Ag1  1  0.75000029  0.25000034  0.50000019  1
  Sn  Sn2  1  0.24999858  0.74999891  0.49999758  1
  S  S3  1  0.86003052  0.38060430  0.01937376  1
  S  S4  1  0.36123150  0.84065805  0.98062961  1
  S  S5  1  0.61939743  0.63876929  0.47942794  1
  S  S6  1  0.15934272  0.13997057  0.52057331  1
