# generated using pymatgen
data_AlAgS2
_symmetry_space_group_name_H-M   'P 1'
_cell_length_a   3.55603653
_cell_length_b   3.55603667
_cell_length_c   14.60838502
_cell_angle_alpha   90.00000006
_cell_angle_beta   90.00000032
_cell_angle_gamma   120.00001691
_symmetry_Int_Tables_number   1
_chemical_formula_structural   AlAgS2
_chemical_formula_sum   'Al2 Ag2 S4'
_cell_volume   159.97982167
_cell_formula_units_Z   2
loop_
 _symmetry_equiv_pos_site_id
 _symmetry_equiv_pos_as_xyz
  1  'x, y, z'
loop_
 _atom_site_type_symbol
 _atom_site_label
 _atom_site_symmetry_multiplicity
 _atom_site_fract_x
 _atom_site_fract_y
 _atom_site_fract_z
 _atom_site_occupancy
  Al  Al0  1  -0.00000000  -0.00000000  0.00000000  1
  Al  Al1  1  0.00000000  0.00000000  0.50000000  1
  Ag  Ag2  1  0.66666667  0.33333334  0.75000000  1
  Ag  Ag3  1  0.33333334  0.66666666  0.25000000  1
  S  S4  1  0.33333328  0.66666661  0.41197937  1
  S  S5  1  0.66666672  0.33333339  0.91197937  1
  S  S6  1  0.33333328  0.66666661  0.08802063  1
  S  S7  1  0.66666672  0.33333339  0.58802063  1
