# generated using pymatgen
data_AlAgF4
_symmetry_space_group_name_H-M   'P 1'
_cell_length_a   5.75823499
_cell_length_b   7.27440807
_cell_length_c   8.22101072
_cell_angle_alpha   89.99995005
_cell_angle_beta   89.99996041
_cell_angle_gamma   89.99999826
_symmetry_Int_Tables_number   1
_chemical_formula_structural   AlAgF4
_chemical_formula_sum   'Al4 Ag4 F16'
_cell_volume   344.35965067
_cell_formula_units_Z   4
loop_
 _symmetry_equiv_pos_site_id
 _symmetry_equiv_pos_as_xyz
  1  'x, y, z'
loop_
 _atom_site_type_symbol
 _atom_site_label
 _atom_site_symmetry_multiplicity
 _atom_site_fract_x
 _atom_site_fract_y
 _atom_site_fract_z
 _atom_site_occupancy
  Al  Al0  1  0.74999993  0.19013317  0.45569232  1
  Al  Al1  1  0.25000007  0.80986683  0.54430768  1
  Al  Al2  1  0.25000003  0.69013301  0.04430864  1
  Al  Al3  1  0.74999997  0.30986699  0.95569136  1
  Ag  Ag4  1  0.24999972  0.19985326  0.19880752  1
  Ag  Ag5  1  0.75000028  0.80014674  0.80119248  1
  Ag  Ag6  1  0.75000028  0.69985279  0.30119271  1
  Ag  Ag7  1  0.24999972  0.30014721  0.69880729  1
  F  F8  1  0.75000151  0.42742030  0.13502637  1
  F  F9  1  0.24999849  0.57257970  0.86497363  1
  F  F10  1  0.24999849  0.92741901  0.36497316  1
  F  F11  1  0.75000151  0.07258099  0.63502684  1
  F  F12  1  0.74999858  0.45872325  0.79683132  1
  F  F13  1  0.25000142  0.54127675  0.20316868  1
  F  F14  1  0.25000142  -0.04127518  0.70316800  1
  F  F15  1  0.74999858  0.04127518  0.29683200  1
  F  F16  1  0.50043282  0.18636126  0.95032960  1
  F  F17  1  0.00043355  0.81363939  0.04967259  1
  F  F18  1  0.49956684  0.68636133  0.54967101  1
  F  F19  1  -0.00043386  0.31363933  0.45032680  1
  F  F20  1  0.49956719  0.81363875  0.04967040  1
  F  F21  1  -0.00043356  0.18636061  0.95032741  1
  F  F22  1  0.50043316  0.31363867  0.45032899  1
  F  F23  1  0.00043386  0.68636067  0.54967320  1
