# generated using pymatgen
data_AlAsS4
_symmetry_space_group_name_H-M   'P 1'
_cell_length_a   5.96421793
_cell_length_b   5.96424737
_cell_length_c   14.14633641
_cell_angle_alpha   90.00143231
_cell_angle_beta   89.99883009
_cell_angle_gamma   119.99611156
_symmetry_Int_Tables_number   1
_chemical_formula_structural   AlAsS4
_chemical_formula_sum   'Al3 As3 S12'
_cell_volume   435.81360230
_cell_formula_units_Z   3
loop_
 _symmetry_equiv_pos_site_id
 _symmetry_equiv_pos_as_xyz
  1  'x, y, z'
loop_
 _atom_site_type_symbol
 _atom_site_label
 _atom_site_symmetry_multiplicity
 _atom_site_fract_x
 _atom_site_fract_y
 _atom_site_fract_z
 _atom_site_occupancy
  Al  Al0  1  0.45968215  0.99997527  0.33332629  1
  Al  Al1  1  0.99998795  0.45968215  0.66667427  1
  Al  Al2  1  0.54033723  0.54034432  -0.00000038  1
  As  As3  1  0.45426621  0.00002539  0.83332857  1
  As  As4  1  0.00001843  0.45426569  0.16666967  1
  As  As5  1  0.54569610  0.54568843  0.49999948  1
  S  S6  1  0.32290631  0.37897534  0.13862401  1
  S  S7  1  0.62101303  -0.05613406  0.47195420  1
  S  S8  1  0.05606277  0.67726168  0.80527025  1
  S  S9  1  -0.05612280  0.62100718  0.52804501  1
  S  S10  1  0.67725383  0.05606400  0.19472624  1
  S  S11  1  0.37896200  0.32290498  0.86137588  1
  S  S12  1  0.36947020  0.32231688  0.36940337  1
  S  S13  1  0.67769930  0.04714853  0.70275052  1
  S  S14  1  0.95285400  0.63045035  0.03606397  1
  S  S15  1  0.04714542  0.67769561  0.29725042  1
  S  S16  1  0.63043748  0.95285579  -0.03606195  1
  S  S17  1  0.32233139  0.36947246  0.63059823  1
