# generated using pymatgen
data_AlBiSF4
_symmetry_space_group_name_H-M   'P 1'
_cell_length_a   9.10287884
_cell_length_b   9.10290213
_cell_length_c   9.10291038
_cell_angle_alpha   110.15108574
_cell_angle_beta   110.15073230
_cell_angle_gamma   108.12116519
_symmetry_Int_Tables_number   1
_chemical_formula_structural   AlBiSF4
_chemical_formula_sum   'Al4 Bi4 S4 F16'
_cell_volume   580.40550636
_cell_formula_units_Z   4
loop_
 _symmetry_equiv_pos_site_id
 _symmetry_equiv_pos_as_xyz
  1  'x, y, z'
loop_
 _atom_site_type_symbol
 _atom_site_label
 _atom_site_symmetry_multiplicity
 _atom_site_fract_x
 _atom_site_fract_y
 _atom_site_fract_z
 _atom_site_occupancy
  Al  Al0  1  0.60955177  0.73068742  0.73834237  1
  Al  Al1  1  0.12879948  0.39045361  0.12114331  1
  Al  Al2  1  0.99234302  0.87120740  0.26165786  1
  Al  Al3  1  0.26931000  0.00765720  0.87885626  1
  Bi  Bi4  1  0.78856354  0.19468653  0.24450057  1
  Bi  Bi5  1  0.80530933  0.04981064  0.59386957  1
  Bi  Bi6  1  0.95019055  0.54406625  0.75550543  1
  Bi  Bi7  1  0.45593791  0.21143838  0.40612620  1
  S  S8  1  0.03649070  0.30950453  0.58541318  1
  S  S9  1  0.72409507  0.45107951  0.41459317  1
  S  S10  1  0.54891893  0.96350937  0.27301008  1
  S  S11  1  0.69049676  0.27590823  0.72698480  1
  F  F12  1  0.87551369  0.84583943  0.37117409  1
  F  F13  1  0.55501827  0.81903369  0.60265756  1
  F  F14  1  0.81849771  0.76163220  0.77825149  1
  F  F15  1  0.15416044  0.52534373  0.02967948  1
  F  F16  1  0.49566832  0.12448528  0.97032592  1
  F  F17  1  0.95974642  0.18150144  0.94312770  1
  F  F18  1  -0.01661535  0.04024754  0.22175527  1
  F  F19  1  0.23837129  0.01661804  0.05686719  1
  F  F20  1  0.21637681  0.95235874  0.39734310  1
  F  F21  1  0.04763537  0.44498590  0.26402110  1
  F  F22  1  0.15941824  0.09219992  0.77290536  1
  F  F23  1  0.31929479  0.38651364  0.22709511  1
  F  F24  1  0.18096399  0.78361406  0.73597653  1
  F  F25  1  0.90778999  0.68069937  0.06721037  1
  F  F26  1  0.47466345  0.50433900  0.62882057  1
  F  F27  1  0.61348749  0.84058093  0.93278636  1
