# generated using pymatgen
data_AlBiSI4
_symmetry_space_group_name_H-M   'P 1'
_cell_length_a   11.70743081
_cell_length_b   11.70742750
_cell_length_c   11.70742566
_cell_angle_alpha   106.55209341
_cell_angle_beta   106.55204725
_cell_angle_gamma   115.48202063
_symmetry_Int_Tables_number   1
_chemical_formula_structural   AlBiSI4
_chemical_formula_sum   'Al4 Bi4 S4 I16'
_cell_volume   1224.96874890
_cell_formula_units_Z   4
loop_
 _symmetry_equiv_pos_site_id
 _symmetry_equiv_pos_as_xyz
  1  'x, y, z'
loop_
 _atom_site_type_symbol
 _atom_site_label
 _atom_site_symmetry_multiplicity
 _atom_site_fract_x
 _atom_site_fract_y
 _atom_site_fract_z
 _atom_site_occupancy
  Al  Al0  1  0.59591201  0.68821595  0.71221411  1
  Al  Al1  1  0.11630229  0.40408881  0.09230427  1
  Al  Al2  1  0.97600133  0.88369766  0.28778579  1
  Al  Al3  1  0.31178414  0.02399796  0.90769599  1
  Bi  Bi4  1  0.80397726  0.22577070  0.31490894  1
  Bi  Bi5  1  0.77422936  0.08913841  0.57820658  1
  Bi  Bi6  1  0.91086186  0.48906878  0.68509149  1
  Bi  Bi7  1  0.51093161  0.19602270  0.42179331  1
  S  S8  1  -0.01601318  0.31400202  0.57414112  1
  S  S9  1  0.73986073  0.40984593  0.42585924  1
  S  S10  1  0.59015404  1.01601315  0.33001460  1
  S  S11  1  0.68599834  0.26013928  0.66998515  1
  I  I12  1  0.82680389  0.84224172  0.41629298  1
  I  I13  1  0.51599136  0.79772277  0.56341613  1
  I  I14  1  0.84792888  0.75416197  0.74759112  1
  I  I15  1  0.15775756  0.57405204  -0.01543713  1
  I  I16  1  0.58948882  0.17319461  1.01543740  1
  I  I17  1  0.89966251  0.15207150  0.90623302  1
  I  I18  1  0.00657025  0.10033752  0.25240869  1
  I  I19  1  0.24583792  0.99342951  0.09376693  1
  I  I20  1  0.23430624  0.95257533  0.43658412  1
  I  I21  1  0.04742505  0.48400965  0.28173183  1
  I  I22  1  0.22802659  0.14911660  0.80016621  1
  I  I23  1  0.34895079  0.42786103  0.19983378  1
  I  I24  1  0.20227738  0.76569280  0.71826836  1
  I  I25  1  0.85088227  0.65104890  0.07890913  1
  I  I26  1  0.42594865  0.41051105  0.58370623  1
  I  I27  1  0.57214004  0.77197364  0.92109063  1
