# generated using pymatgen
data_AlBiSeI4
_symmetry_space_group_name_H-M   'P 1'
_cell_length_a   11.97455250
_cell_length_b   11.97455465
_cell_length_c   11.97467651
_cell_angle_alpha   105.97111362
_cell_angle_beta   105.96953323
_cell_angle_gamma   116.72542393
_symmetry_Int_Tables_number   1
_chemical_formula_structural   AlBiSeI4
_chemical_formula_sum   'Al4 Bi4 Se4 I16'
_cell_volume   1305.70665566
_cell_formula_units_Z   4
loop_
 _symmetry_equiv_pos_site_id
 _symmetry_equiv_pos_as_xyz
  1  'x, y, z'
loop_
 _atom_site_type_symbol
 _atom_site_label
 _atom_site_symmetry_multiplicity
 _atom_site_fract_x
 _atom_site_fract_y
 _atom_site_fract_z
 _atom_site_occupancy
  Al  Al0  1  0.67339134  0.59155171  0.69601837  1
  Al  Al1  1  0.40845326  0.10447754  0.08184327  1
  Al  Al2  1  0.89553328  0.97737283  0.30398137  1
  Al  Al3  1  0.02263399  0.32660967  0.91815693  1
  Bi  Bi4  1  0.49266182  0.90851850  0.68197505  1
  Bi  Bi5  1  0.22654362  0.81068701  0.31802514  1
  Bi  Bi6  1  0.09148096  0.77345484  0.58414177  1
  Bi  Bi7  1  0.18931310  0.50733902  0.41585800  1
  Se  Se8  1  0.32274646  -0.00319111  0.58342630  1
  Se  Se9  1  0.26068088  0.67725357  0.67406281  1
  Se  Se10  1  0.41338267  0.73932017  0.41657371  1
  Se  Se11  1  0.00319080  0.58661816  0.32593721  1
  I  I12  1  0.76921179  0.20853061  0.73106339  1
  I  I13  1  0.47746727  0.03814839  0.26893650  1
  I  I14  1  0.09463126  -0.00246342  0.24747433  1
  I  I15  1  0.40263346  0.42009740  0.54402819  1
  I  I16  1  0.65832194  0.83690038  0.10881218  1
  I  I17  1  0.75006228  0.84715707  0.75252571  1
  I  I18  1  0.00246327  0.24993688  0.09709709  1
  I  I19  1  0.79146891  0.52253395  0.56068295  1
  I  I20  1  0.45048958  0.34166982  0.17857574  1
  I  I21  1  0.57990139  0.12393115  -0.01746339  1
  I  I22  1  0.72808820  0.54950963  0.89118793  1
  I  I23  1  0.15283946  0.90536596  0.90290265  1
  I  I24  1  0.87606928  0.85860527  0.45597185  1
  I  I25  1  0.96185115  0.23078619  0.43931721  1
  I  I26  1  0.16309411  0.27191378  0.82142434  1
  I  I27  1  0.14139447  0.59736505  0.01746339  1
