# generated using pymatgen
data_AlBiSBr4
_symmetry_space_group_name_H-M   'P 1'
_cell_length_a   11.01400838
_cell_length_b   11.01400516
_cell_length_c   11.01400702
_cell_angle_alpha   106.53367867
_cell_angle_beta   106.53362864
_cell_angle_gamma   115.52118794
_symmetry_Int_Tables_number   1
_chemical_formula_structural   AlBiSBr4
_chemical_formula_sum   'Al4 Bi4 S4 Br16'
_cell_volume   1019.83136668
_cell_formula_units_Z   4
loop_
 _symmetry_equiv_pos_site_id
 _symmetry_equiv_pos_as_xyz
  1  'x, y, z'
loop_
 _atom_site_type_symbol
 _atom_site_label
 _atom_site_symmetry_multiplicity
 _atom_site_fract_x
 _atom_site_fract_y
 _atom_site_fract_z
 _atom_site_occupancy
  Al  Al0  1  0.59109093  0.68648721  0.70873264  1
  Al  Al1  1  0.11764183  0.40890942  0.09539636  1
  Al  Al2  1  0.97775369  0.88235786  0.29126670  1
  Al  Al3  1  0.31351318  0.02224608  0.90460423  1
  Bi  Bi4  1  0.80928918  0.22308331  0.30582817  1
  Bi  Bi5  1  0.77691710  0.08274496  0.58620618  1
  Bi  Bi6  1  0.91725521  0.50346133  0.69417264  1
  Bi  Bi7  1  0.49653868  0.19071076  0.41379383  1
  S  S8  1  -0.00074405  0.32107357  0.58140158  1
  S  S9  1  0.73967200  0.41785470  0.41859913  1
  S  S10  1  0.58214540  0.00074417  0.32181751  1
  S  S11  1  0.67892700  0.26032823  0.67818290  1
  Br  Br12  1  0.83955939  0.84679589  0.42088571  1
  Br  Br13  1  0.51509127  0.79016668  0.56362034  1
  Br  Br14  1  0.83722394  0.75626651  0.74761048  1
  Br  Br15  1  0.15320405  0.57409023  -0.00723616  1
  Br  Br16  1  0.58132667  0.16044018  0.00723672  1
  Br  Br17  1  0.91038657  0.16277609  0.91904260  1
  Br  Br18  1  0.00865562  0.08961323  0.25238913  1
  Br  Br19  1  0.24373360  0.99134424  0.08095754  1
  Br  Br20  1  0.22654566  0.95147058  0.43637888  1
  Br  Br21  1  0.04852902  0.48490874  0.27507538  1
  Br  Br22  1  0.23229275  0.14487909  0.80467905  1
  Br  Br23  1  0.34019980  0.42761372  0.19532173  1
  Br  Br24  1  0.20983270  0.77345413  0.72492436  1
  Br  Br25  1  0.85512091  0.65979978  0.08741299  1
  Br  Br26  1  0.42590961  0.41867341  0.57911359  1
  Br  Br27  1  0.57238631  0.76770791  0.91258580  1
