# generated using pymatgen
data_AlBiBr6
_symmetry_space_group_name_H-M   'P 1'
_cell_length_a   12.46625533
_cell_length_b   9.07809675
_cell_length_c   13.57740219
_cell_angle_alpha   69.88770993
_cell_angle_beta   90.00000486
_cell_angle_gamma   89.99999853
_symmetry_Int_Tables_number   1
_chemical_formula_structural   AlBiBr6
_chemical_formula_sum   'Al4 Bi4 Br24'
_cell_volume   1442.85466543
_cell_formula_units_Z   4
loop_
 _symmetry_equiv_pos_site_id
 _symmetry_equiv_pos_as_xyz
  1  'x, y, z'
loop_
 _atom_site_type_symbol
 _atom_site_label
 _atom_site_symmetry_multiplicity
 _atom_site_fract_x
 _atom_site_fract_y
 _atom_site_fract_z
 _atom_site_occupancy
  Al  Al0  1  0.77429077  0.51607464  0.71757845  1
  Al  Al1  1  0.72570917  0.51607473  0.21757837  1
  Al  Al2  1  0.27429083  0.48392529  0.78242165  1
  Al  Al3  1  0.22570923  0.48392534  0.28242152  1
  Bi  Bi4  1  0.96849147  0.19259356  0.34841213  1
  Bi  Bi5  1  0.53150856  0.19259357  0.84841220  1
  Bi  Bi6  1  0.03150853  0.80740644  0.65158785  1
  Bi  Bi7  1  0.46849145  0.80740642  0.15158784  1
  Br  Br8  1  0.42111124  -0.01684786  0.26268913  1
  Br  Br9  1  0.90643336  0.55284381  0.17753401  1
  Br  Br10  1  0.66241731  0.69166007  0.29857029  1
  Br  Br11  1  0.11786225  0.44435576  0.42821629  1
  Br  Br12  1  0.88213783  0.55564411  0.57178375  1
  Br  Br13  1  0.07888862  -0.01684783  0.76268917  1
  Br  Br14  1  0.38213787  0.44435563  0.92821635  1
  Br  Br15  1  0.09356664  0.44715631  0.82246608  1
  Br  Br16  1  0.16241732  0.30833983  0.20142976  1
  Br  Br17  1  0.40643338  0.44715617  0.32246594  1
  Br  Br18  1  0.59356663  0.55284370  0.67753397  1
  Br  Br19  1  0.61786222  0.55564449  0.07178360  1
  Br  Br20  1  0.63487641  0.01447032  0.04531007  1
  Br  Br21  1  0.71296703  0.26197182  0.33820225  1
  Br  Br22  1  0.21296701  0.73802813  0.16179755  1
  Br  Br23  1  0.36512360  -0.01447035  0.95468994  1
  Br  Br24  1  0.28703296  0.73802816  0.66179769  1
  Br  Br25  1  0.92111136  0.01684777  0.23731087  1
  Br  Br26  1  0.33758263  0.30833988  0.70142978  1
  Br  Br27  1  0.78703297  0.26197188  0.83820250  1
  Br  Br28  1  0.13487644  -0.01447022  0.45469006  1
  Br  Br29  1  0.83758261  0.69166019  0.79857018  1
  Br  Br30  1  0.57888876  0.01684792  0.73731084  1
  Br  Br31  1  0.86512353  0.01447029  0.54530992  1
