# generated using pymatgen
data_AlCr4AgSe8
_symmetry_space_group_name_H-M   'P 1'
_cell_length_a   7.54721921
_cell_length_b   7.54721916
_cell_length_c   7.54728195
_cell_angle_alpha   59.99984381
_cell_angle_beta   59.99984221
_cell_angle_gamma   59.99955196
_symmetry_Int_Tables_number   1
_chemical_formula_structural   AlCr4AgSe8
_chemical_formula_sum   'Al1 Cr4 Ag1 Se8'
_cell_volume   303.98139338
_cell_formula_units_Z   1
loop_
 _symmetry_equiv_pos_site_id
 _symmetry_equiv_pos_as_xyz
  1  'x, y, z'
loop_
 _atom_site_type_symbol
 _atom_site_label
 _atom_site_symmetry_multiplicity
 _atom_site_fract_x
 _atom_site_fract_y
 _atom_site_fract_z
 _atom_site_occupancy
  Al  Al0  1  0.00000100  0.00000050  -0.00000056  1
  Cr  Cr1  1  0.62158758  0.62158755  0.13523684  1
  Cr  Cr2  1  0.62158716  0.13523780  0.62158728  1
  Cr  Cr3  1  0.13523763  0.62158732  0.62158726  1
  Cr  Cr4  1  0.62158785  0.62158783  0.62158780  1
  Ag  Ag5  1  0.24999928  0.24999967  0.25000024  1
  Se  Se6  1  0.86655541  0.86655529  0.40033467  1
  Se  Se7  1  0.86655571  0.40033391  0.86655524  1
  Se  Se8  1  0.40033365  0.86655582  0.86655532  1
  Se  Se9  1  0.86655539  0.86655528  0.86655474  1
  Se  Se10  1  0.38911075  0.38911091  0.83266663  1
  Se  Se11  1  0.38911022  0.83266740  0.38911137  1
  Se  Se12  1  0.83266779  0.38911003  0.38911126  1
  Se  Se13  1  0.38911059  0.38911070  0.38911190  1
