# generated using pymatgen
data_AlCuSnS4
_symmetry_space_group_name_H-M   'P 1'
_cell_length_a   6.59502025
_cell_length_b   6.59501673
_cell_length_c   6.59505425
_cell_angle_alpha   131.99090766
_cell_angle_beta   131.99088433
_cell_angle_gamma   70.24378396
_symmetry_Int_Tables_number   1
_chemical_formula_structural   AlCuSnS4
_chemical_formula_sum   'Al1 Cu1 Sn1 S4'
_cell_volume   155.31310012
_cell_formula_units_Z   1
loop_
 _symmetry_equiv_pos_site_id
 _symmetry_equiv_pos_as_xyz
  1  'x, y, z'
loop_
 _atom_site_type_symbol
 _atom_site_label
 _atom_site_symmetry_multiplicity
 _atom_site_fract_x
 _atom_site_fract_y
 _atom_site_fract_z
 _atom_site_occupancy
  Al  Al0  1  0.75000114  0.25000093  0.50000167  1
  Cu  Cu1  1  0.25000109  0.75000062  0.50000034  1
  Sn  Sn2  1  0.50000263  0.50000080  0.00000285  1
  S  S3  1  0.10204154  0.10906771  0.46903582  1
  S  S4  1  0.64003085  0.63300703  0.53096270  1
  S  S5  1  0.36699206  0.89795463  0.00702261  1
  S  S6  1  0.89093070  0.35996827  0.99297400  1
