# generated using pymatgen
data_AlCuSnSe4
_symmetry_space_group_name_H-M   'P 1'
_cell_length_a   6.84570437
_cell_length_b   6.84571916
_cell_length_c   6.84572168
_cell_angle_alpha   130.34305032
_cell_angle_beta   130.34343562
_cell_angle_gamma   72.85950375
_symmetry_Int_Tables_number   1
_chemical_formula_structural   AlCuSnSe4
_chemical_formula_sum   'Al1 Cu1 Sn1 Se4'
_cell_volume   182.04713182
_cell_formula_units_Z   1
loop_
 _symmetry_equiv_pos_site_id
 _symmetry_equiv_pos_as_xyz
  1  'x, y, z'
loop_
 _atom_site_type_symbol
 _atom_site_label
 _atom_site_symmetry_multiplicity
 _atom_site_fract_x
 _atom_site_fract_y
 _atom_site_fract_z
 _atom_site_occupancy
  Al  Al0  1  0.49999926  0.50000201  0.00000144  1
  Cu  Cu1  1  0.75000672  0.25000788  0.50001029  1
  Sn  Sn2  1  0.25000592  0.75000167  0.50000448  1
  Se  Se3  1  0.85787184  0.34647909  -0.02333616  1
  Se  Se4  1  0.36980944  0.88120624  0.02332782  1
  Se  Se5  1  0.65352294  0.63018872  0.51139975  1
  Se  Se6  1  0.11878389  0.14211439  0.48859238  1
