# generated using pymatgen
data_AlH15I3N5
_symmetry_space_group_name_H-M   'P 1'
_cell_length_a   7.24068960
_cell_length_b   11.52083342
_cell_length_c   14.64922632
_cell_angle_alpha   89.99999615
_cell_angle_beta   89.99999780
_cell_angle_gamma   90.00000003
_symmetry_Int_Tables_number   1
_chemical_formula_structural   AlH15I3N5
_chemical_formula_sum   'Al4 H60 I12 N20'
_cell_volume   1222.02056892
_cell_formula_units_Z   4
loop_
 _symmetry_equiv_pos_site_id
 _symmetry_equiv_pos_as_xyz
  1  'x, y, z'
loop_
 _atom_site_type_symbol
 _atom_site_label
 _atom_site_symmetry_multiplicity
 _atom_site_fract_x
 _atom_site_fract_y
 _atom_site_fract_z
 _atom_site_occupancy
  Al  Al0  1  0.31622586  0.25000000  0.60450274  1
  Al  Al1  1  0.18377415  0.25000000  0.10450275  1
  Al  Al2  1  0.68377414  0.75000000  0.39549726  1
  Al  Al3  1  0.81622585  0.75000000  0.89549725  1
  H  H4  1  0.49139176  0.24999999  0.76232074  1
  H  H5  1  0.00860825  0.24999999  0.26232076  1
  H  H6  1  0.50860824  0.75000000  0.23767926  1
  H  H7  1  0.99139175  0.75000001  0.73767924  1
  H  H8  1  0.61569659  0.17845065  0.68683588  1
  H  H9  1  0.88430341  0.32154935  0.18683591  1
  H  H10  1  0.38430341  0.67845065  0.31316412  1
  H  H11  1  0.11569659  0.82154936  0.81316409  1
  H  H12  1  0.38430341  0.82154935  0.31316412  1
  H  H13  1  0.11569659  0.67845065  0.81316409  1
  H  H14  1  0.61569659  0.32154935  0.68683588  1
  H  H15  1  0.88430341  0.17845065  0.18683591  1
  H  H16  1  0.97489549  0.25000000  0.53414654  1
  H  H17  1  0.52510450  0.25000000  0.03414652  1
  H  H18  1  0.02510451  0.75000000  0.46585346  1
  H  H19  1  0.47489550  0.75000000  0.96585348  1
  H  H20  1  0.38305024  0.17881580  0.96717177  1
  H  H21  1  0.11694974  0.32118421  0.46717177  1
  H  H22  1  0.61694976  0.67881579  0.03282824  1
  H  H23  1  0.88305027  0.82118420  0.53282823  1
  H  H24  1  0.61694976  0.82118420  0.03282823  1
  H  H25  1  0.88305026  0.67881579  0.53282823  1
  H  H26  1  0.38305024  0.32118421  0.96717176  1
  H  H27  1  0.11694973  0.17881580  0.46717177  1
  H  H28  1  0.16707194  0.24999999  0.77164173  1
  H  H29  1  0.33292806  0.24999999  0.27164173  1
  H  H30  1  0.83292806  0.75000001  0.22835827  1
  H  H31  1  0.66707194  0.75000001  0.72835827  1
  H  H32  1  0.03634307  0.17822933  0.69988215  1
  H  H33  1  0.46365694  0.32177067  0.19988216  1
  H  H34  1  0.96365693  0.67822933  0.30011785  1
  H  H35  1  0.53634306  0.82177067  0.80011784  1
  H  H36  1  0.96365693  0.82177067  0.30011785  1
  H  H37  1  0.53634306  0.67822934  0.80011784  1
  H  H38  1  0.03634307  0.32177067  0.69988215  1
  H  H39  1  0.46365694  0.17822933  0.19988216  1
  H  H40  1  0.28743058  0.04046814  0.53726601  1
  H  H41  1  0.21256941  0.45953186  0.03726599  1
  H  H42  1  0.71256941  0.54046814  0.46273402  1
  H  H43  1  0.78743058  0.95953187  0.96273398  1
  H  H44  1  0.71256942  0.95953186  0.46273399  1
  H  H45  1  0.78743059  0.54046814  0.96273401  1
  H  H46  1  0.28743059  0.45953186  0.53726598  1
  H  H47  1  0.21256942  0.04046813  0.03726602  1
  H  H48  1  0.45730210  0.04124802  0.61113934  1
  H  H49  1  0.04269792  0.45875199  0.11113935  1
  H  H50  1  0.54269791  0.54124801  0.38886068  1
  H  H51  1  0.95730208  0.95875199  0.88886063  1
  H  H52  1  0.54269790  0.95875198  0.38886066  1
  H  H53  1  0.95730208  0.54124801  0.88886065  1
  H  H54  1  0.45730209  0.45875198  0.61113932  1
  H  H55  1  0.04269791  0.04124801  0.11113937  1
  H  H56  1  0.24272618  0.03293095  0.64713670  1
  H  H57  1  0.25727386  0.46706905  0.14713668  1
  H  H58  1  0.75727384  0.53293095  0.35286333  1
  H  H59  1  0.74272616  0.96706905  0.85286329  1
  H  H60  1  0.75727382  0.96706905  0.35286329  1
  H  H61  1  0.74272614  0.53293095  0.85286332  1
  H  H62  1  0.24272617  0.46706905  0.64713667  1
  H  H63  1  0.25727384  0.03293095  0.14713671  1
  I  I64  1  0.92252145  0.25000000  0.96049473  1
  I  I65  1  0.57747856  0.25000000  0.46049471  1
  I  I66  1  0.07747855  0.75000000  0.03950527  1
  I  I67  1  0.42252145  0.75000000  0.53950529  1
  I  I68  1  0.33352383  0.00529557  0.85082757  1
  I  I69  1  0.16647616  0.49470444  0.35082756  1
  I  I70  1  0.66647617  0.50529558  0.14917248  1
  I  I71  1  0.83352385  0.99470445  0.64917239  1
  I  I72  1  0.66647617  0.99470443  0.14917243  1
  I  I73  1  0.83352384  0.50529556  0.64917244  1
  I  I74  1  0.33352383  0.49470443  0.85082752  1
  I  I75  1  0.16647616  0.00529555  0.35082761  1
  N  N76  1  0.53087659  0.25000000  0.69499717  1
  N  N77  1  0.96912342  0.25000000  0.19499719  1
  N  N78  1  0.46912341  0.75000000  0.30500283  1
  N  N79  1  0.03087658  0.75000000  0.80500281  1
  N  N80  1  0.10870475  0.25000000  0.51014257  1
  N  N81  1  0.39129524  0.25000000  0.01014257  1
  N  N82  1  0.89129525  0.75000000  0.48985743  1
  N  N83  1  0.60870476  0.75000000  0.98985744  1
  N  N84  1  0.12199401  0.25000000  0.70513355  1
  N  N85  1  0.37800599  0.25000000  0.20513355  1
  N  N86  1  0.87800599  0.75000000  0.29486645  1
  N  N87  1  0.62199401  0.75000000  0.79486645  1
  N  N88  1  0.32618698  0.07345011  0.59988382  1
  N  N89  1  0.17381302  0.42654990  0.09988381  1
  N  N90  1  0.67381302  0.57345011  0.40011620  1
  N  N91  1  0.82618698  0.92654990  0.90011616  1
  N  N92  1  0.67381302  0.92654989  0.40011618  1
  N  N93  1  0.82618698  0.57345011  0.90011619  1
  N  N94  1  0.32618698  0.42654989  0.59988380  1
  N  N95  1  0.17381302  0.07345011  0.09988384  1
