# generated using pymatgen
data_AlH15N5F3
_symmetry_space_group_name_H-M   'P 1'
_cell_length_a   6.47902528
_cell_length_b   9.32908751
_cell_length_c   11.99050409
_cell_angle_alpha   89.99999553
_cell_angle_beta   90.00000248
_cell_angle_gamma   89.99999913
_symmetry_Int_Tables_number   1
_chemical_formula_structural   AlH15N5F3
_chemical_formula_sum   'Al4 H60 N20 F12'
_cell_volume   724.74676077
_cell_formula_units_Z   4
loop_
 _symmetry_equiv_pos_site_id
 _symmetry_equiv_pos_as_xyz
  1  'x, y, z'
loop_
 _atom_site_type_symbol
 _atom_site_label
 _atom_site_symmetry_multiplicity
 _atom_site_fract_x
 _atom_site_fract_y
 _atom_site_fract_z
 _atom_site_occupancy
  Al  Al0  1  0.31858256  0.25000005  0.58539762  1
  Al  Al1  1  0.18141745  0.25000000  0.08539761  1
  Al  Al2  1  0.68141742  0.74999998  0.41460238  1
  Al  Al3  1  0.81858254  0.74999994  0.91460239  1
  H  H4  1  0.51861597  0.25000033  0.77620697  1
  H  H5  1  -0.01861596  0.25000015  0.27620696  1
  H  H6  1  0.48138402  0.74999974  0.22379303  1
  H  H7  1  0.01861596  0.74999960  0.72379303  1
  H  H8  1  0.64891299  0.16054182  0.67859274  1
  H  H9  1  0.85108478  0.33946073  0.17859260  1
  H  H10  1  0.35108428  0.66053871  0.32140742  1
  H  H11  1  0.14891267  0.83945782  0.82140725  1
  H  H12  1  0.35108678  0.83945844  0.32140727  1
  H  H13  1  0.14891630  0.66053807  0.82140747  1
  H  H14  1  0.64891596  0.33946156  0.67859256  1
  H  H15  1  0.85108629  0.16054100  0.17859268  1
  H  H16  1  0.94331065  0.24999994  0.48961653  1
  H  H17  1  0.55668938  0.24999993  -0.01038343  1
  H  H18  1  0.05668934  0.75000009  0.51038347  1
  H  H19  1  0.44331063  0.75000006  0.01038344  1
  H  H20  1  0.37993329  0.15780586  0.91710116  1
  H  H21  1  0.12006657  0.34219320  0.41710155  1
  H  H22  1  0.62006655  0.65780676  0.08289844  1
  H  H23  1  0.87993324  0.84219421  0.58289889  1
  H  H24  1  0.62006669  0.84219403  0.08289879  1
  H  H25  1  0.87993344  0.65780691  0.58289840  1
  H  H26  1  0.37993348  0.34219314  0.91710161  1
  H  H27  1  0.12006673  0.15780591  0.41710115  1
  H  H28  1  0.11435892  0.24999991  0.78285166  1
  H  H29  1  0.38564112  0.24999993  0.28285169  1
  H  H30  1  0.88564108  0.75000009  0.21714835  1
  H  H31  1  0.61435889  0.75000012  0.71714831  1
  H  H32  1  -0.01183973  0.16096476  0.68469991  1
  H  H33  1  0.51183887  0.33903439  0.18470002  1
  H  H34  1  0.01183879  0.66096570  0.31530000  1
  H  H35  1  0.48816013  0.83903540  0.81530008  1
  H  H36  1  0.01183966  0.83903518  0.31530008  1
  H  H37  1  0.48816142  0.66096590  0.81529996  1
  H  H38  1  -0.01183875  0.33903426  0.68470001  1
  H  H39  1  0.51183958  0.16096490  0.18469994  1
  H  H40  1  0.25357690  -0.01178621  0.52030332  1
  H  H41  1  0.24642330  0.51178632  0.02030308  1
  H  H42  1  0.74642336  0.48821364  0.47969691  1
  H  H43  1  0.75357694  0.01178618  0.97969670  1
  H  H44  1  0.74642312  0.01178623  0.47969670  1
  H  H45  1  0.75357662  0.48821362  0.97969698  1
  H  H46  1  0.25357661  0.51178638  0.52030308  1
  H  H47  1  0.24642314  -0.01178624  0.02030323  1
  H  H48  1  0.46153795  -0.01214734  0.59912593  1
  H  H49  1  0.03846240  0.51214720  0.09912587  1
  H  H50  1  0.53846248  0.48785285  0.40087411  1
  H  H51  1  0.96153801  0.01214738  0.90087409  1
  H  H52  1  0.53846207  0.01214733  0.40087407  1
  H  H53  1  0.96153742  0.48785288  0.90087414  1
  H  H54  1  0.46153748  0.51214714  0.59912588  1
  H  H55  1  0.03846218  -0.01214731  0.09912590  1
  H  H56  1  0.23625101  -0.00697110  0.65972371  1
  H  H57  1  0.26374897  0.50697108  0.15972363  1
  H  H58  1  0.76374892  0.49302894  0.34027633  1
  H  H59  1  0.73625099  0.00697112  0.84027632  1
  H  H60  1  0.76374897  0.00697109  0.34027630  1
  H  H61  1  0.73625107  0.49302895  0.84027641  1
  H  H62  1  0.23625109  0.50697105  0.65972365  1
  H  H63  1  0.26374900  -0.00697109  0.15972364  1
  N  N64  1  0.55650060  0.24999645  0.69361275  1
  N  N65  1  0.94349939  0.24999818  0.19361274  1
  N  N66  1  0.44349939  0.75000299  0.30638725  1
  N  N67  1  0.05650060  0.75000434  0.80638726  1
  N  N68  1  0.09409616  0.25000093  0.46424933  1
  N  N69  1  0.40590386  0.25000106  -0.03575063  1
  N  N70  1  0.90590383  0.74999887  0.53575067  1
  N  N71  1  0.59409614  0.74999921  0.03575063  1
  N  N72  1  0.08140806  0.25000111  0.69918766  1
  N  N73  1  0.41859195  0.25000080  0.19918770  1
  N  N74  1  0.91859196  0.74999902  0.30081233  1
  N  N75  1  0.58140807  0.74999856  0.80081231  1
  N  N76  1  0.31630254  0.03103318  0.59230804  1
  N  N77  1  0.18369704  0.46896691  0.09230822  1
  N  N78  1  0.68369693  0.53103307  0.40769170  1
  N  N79  1  0.81630249  0.96896681  0.90769202  1
  N  N80  1  0.68369742  0.96896683  0.40769193  1
  N  N81  1  0.81630316  0.53103303  0.90769167  1
  N  N82  1  0.31630310  0.46896695  0.59230833  1
  N  N83  1  0.18369733  0.03103314  0.09230809  1
  F  F84  1  0.00208519  0.24999998  0.97223236  1
  F  F85  1  0.49791479  0.24999997  0.47223236  1
  F  F86  1  -0.00208518  0.75000003  0.02776764  1
  F  F87  1  0.50208520  0.75000003  0.52776764  1
  F  F88  1  0.31298647  -0.01661870  0.86068667  1
  F  F89  1  0.18701315  0.51661847  0.36068667  1
  F  F90  1  0.68701320  0.48338150  0.13931332  1
  F  F91  1  0.81298650  0.01661869  0.63931335  1
  F  F92  1  0.68701340  0.01661863  0.13931329  1
  F  F93  1  0.81298686  0.48338154  0.63931331  1
  F  F94  1  0.31298692  0.51661845  0.86068672  1
  F  F95  1  0.18701347  -0.01661867  0.36068667  1
