# generated using pymatgen
data_AlH14SNO14
_symmetry_space_group_name_H-M   'P 1'
_cell_length_a   6.14887282
_cell_length_b   7.78342641
_cell_length_c   12.30159186
_cell_angle_alpha   90.63217749
_cell_angle_beta   101.74725455
_cell_angle_gamma   97.70089442
_symmetry_Int_Tables_number   1
_chemical_formula_structural   AlH14SNO14
_chemical_formula_sum   'Al2 H28 S2 N2 O28'
_cell_volume   570.77020834
_cell_formula_units_Z   2
loop_
 _symmetry_equiv_pos_site_id
 _symmetry_equiv_pos_as_xyz
  1  'x, y, z'
loop_
 _atom_site_type_symbol
 _atom_site_label
 _atom_site_symmetry_multiplicity
 _atom_site_fract_x
 _atom_site_fract_y
 _atom_site_fract_z
 _atom_site_occupancy
  Al  Al0  1  0.41445041  0.74644203  0.78618775  1
  Al  Al1  1  0.58554960  0.25355797  0.21381225  1
  H  H2  1  0.66205278  0.80333172  0.98168001  1
  H  H3  1  0.33794721  0.19666827  0.01831999  1
  H  H4  1  0.40213990  0.44172640  0.86815739  1
  H  H5  1  0.59786011  0.55827361  0.13184261  1
  H  H6  1  0.65260770  0.98876130  0.92371111  1
  H  H7  1  0.34739230  0.01123870  0.07628889  1
  H  H8  1  0.69627839  0.75568934  0.65327147  1
  H  H9  1  0.30372162  0.24431065  0.34672853  1
  H  H10  1  0.16299708  0.73103074  0.93207458  1
  H  H11  1  0.83700292  0.26896926  0.06792542  1
  H  H12  1  0.22649174  0.67326622  0.57689544  1
  H  H13  1  0.77350826  0.32673379  0.42310455  1
  H  H14  1  0.32255536  0.00377970  0.66006342  1
  H  H15  1  0.67744462  0.99622030  0.33993658  1
  H  H16  1  0.78117377  0.90949142  0.75122147  1
  H  H17  1  0.21882622  0.09050860  0.24877853  1
  H  H18  1  0.18839260  0.00832039  0.75917886  1
  H  H19  1  0.81160739  0.99167961  0.24082114  1
  H  H20  1  0.20588849  0.85884731  0.43574030  1
  H  H21  1  0.79411152  0.14115269  0.56425970  1
  H  H22  1  0.29212148  0.50189449  0.64205004  1
  H  H23  1  0.70787852  0.49810550  0.35794996  1
  H  H24  1  0.05126667  0.58647542  0.83071260  1
  H  H25  1  0.94873333  0.41352458  0.16928740  1
  H  H26  1  0.16745469  0.67037153  0.38146401  1
  H  H27  1  0.83254531  0.32962847  0.61853598  1
  H  H28  1  0.63651429  0.47642602  0.82432229  1
  H  H29  1  0.36348571  0.52357398  0.17567771  1
  S  S30  1  0.96596945  0.24278404  0.85857166  1
  S  S31  1  0.03403055  0.75721596  0.14142834  1
  N  N32  1  0.69323486  0.75905754  0.45771288  1
  N  N33  1  0.30676514  0.24094245  0.54228712  1
  O  O34  1  0.25969962  0.62428380  0.65346545  1
  O  O35  1  0.74030039  0.37571621  0.34653455  1
  O  O36  1  0.51200242  0.53187808  0.84395282  1
  O  O37  1  0.48799758  0.46812192  0.15604718  1
  O  O38  1  0.31190250  0.95676803  0.73491268  1
  O  O39  1  0.68809750  0.04323196  0.26508732  1
  O  O40  1  0.67648380  0.79973849  0.72799107  1
  O  O41  1  0.32351619  0.20026151  0.27200892  1
  O  O42  1  0.57296035  0.86770031  0.92157032  1
  O  O43  1  0.42703965  0.13229969  0.07842968  1
  O  O44  1  0.16143343  0.69375137  0.85357438  1
  O  O45  1  0.83856656  0.30624863  0.14642562  1
  O  O46  1  0.95813912  0.09454167  0.77896285  1
  O  O47  1  0.04186089  0.90545834  0.22103715  1
  O  O48  1  0.20310299  0.30078492  0.91697057  1
  O  O49  1  0.79689701  0.69921508  0.08302944  1
  O  O50  1  0.87814402  0.39293646  0.79664048  1
  O  O51  1  0.12185597  0.60706354  0.20335953  1
  O  O52  1  0.82503412  0.18510668  0.94062118  1
  O  O53  1  0.17496589  0.81489331  0.05937882  1
  O  O54  1  0.70010174  0.92258962  0.46876211  1
  O  O55  1  0.29989824  0.07741036  0.53123789  1
  O  O56  1  0.65585299  0.69098119  0.36084233  1
  O  O57  1  0.34414701  0.30901880  0.63915767  1
  O  O58  1  0.72272524  0.66647570  0.54156640  1
  O  O59  1  0.27727479  0.33352430  0.45843360  1
  O  O60  1  0.18124939  0.73593483  0.45129732  1
  O  O61  1  0.81875060  0.26406517  0.54870267  1
