# generated using pymatgen
data_AlH3I3N
_symmetry_space_group_name_H-M   'P 1'
_cell_length_a   11.29112523
_cell_length_b   11.45708056
_cell_length_c   13.35388164
_cell_angle_alpha   90.00000018
_cell_angle_beta   89.99999834
_cell_angle_gamma   89.99999909
_symmetry_Int_Tables_number   1
_chemical_formula_structural   AlH3I3N
_chemical_formula_sum   'Al8 H24 I24 N8'
_cell_volume   1727.50261571
_cell_formula_units_Z   8
loop_
 _symmetry_equiv_pos_site_id
 _symmetry_equiv_pos_as_xyz
  1  'x, y, z'
loop_
 _atom_site_type_symbol
 _atom_site_label
 _atom_site_symmetry_multiplicity
 _atom_site_fract_x
 _atom_site_fract_y
 _atom_site_fract_z
 _atom_site_occupancy
  Al  Al0  1  0.17090486  0.60550129  0.66447999  1
  Al  Al1  1  0.17090487  0.89449870  0.16448000  1
  Al  Al2  1  0.32909514  0.10550129  0.66448001  1
  Al  Al3  1  0.32909514  0.39449872  0.16448000  1
  Al  Al4  1  0.67090487  0.60550129  0.83552001  1
  Al  Al5  1  0.67090487  0.89449871  0.33552000  1
  Al  Al6  1  0.82909514  0.10550129  0.83552000  1
  Al  Al7  1  0.82909514  0.39449871  0.33552001  1
  H  H8  1  0.99607004  0.75704022  0.13985419  1
  H  H9  1  0.99607003  0.74295978  0.63985417  1
  H  H10  1  0.04568953  0.79777459  0.02887138  1
  H  H11  1  0.04568952  0.70222541  0.52887136  1
  H  H12  1  0.11452819  0.69286423  0.09180528  1
  H  H13  1  0.11452819  0.80713576  0.59180527  1
  H  H14  1  0.38547180  0.19286424  0.09180526  1
  H  H15  1  0.38547181  0.30713576  0.59180528  1
  H  H16  1  0.45431048  0.20222542  0.52887137  1
  H  H17  1  0.45431048  0.29777459  0.02887134  1
  H  H18  1  0.50392995  0.25704022  0.13985416  1
  H  H19  1  0.50392998  0.24295978  0.63985418  1
  H  H20  1  0.49607003  0.75704021  0.36014582  1
  H  H21  1  0.49607001  0.74295978  0.86014582  1
  H  H22  1  0.54568951  0.70222541  0.97112865  1
  H  H23  1  0.54568952  0.79777458  0.47112864  1
  H  H24  1  0.61452819  0.69286424  0.40819472  1
  H  H25  1  0.61452819  0.80713575  0.90819473  1
  H  H26  1  0.88547182  0.19286425  0.40819473  1
  H  H27  1  0.88547180  0.30713577  0.90819472  1
  H  H28  1  0.95431046  0.20222541  0.97112862  1
  H  H29  1  0.95431048  0.29777459  0.47112863  1
  H  H30  1  0.00392994  0.24295978  0.86014581  1
  H  H31  1  0.00392996  0.25704023  0.36014583  1
  I  I32  1  0.03480583  0.07047104  0.16550073  1
  I  I33  1  0.03480582  0.42952896  0.66550070  1
  I  I34  1  0.14949624  0.42725747  0.05444693  1
  I  I35  1  0.14949626  0.07274254  0.55444692  1
  I  I36  1  0.22635593  0.68826925  0.83367663  1
  I  I37  1  0.22635595  0.81173071  0.33367665  1
  I  I38  1  0.27364405  0.18826931  0.83367664  1
  I  I39  1  0.27364406  0.31173073  0.33367665  1
  I  I40  1  0.35050375  0.57274256  0.55444688  1
  I  I41  1  0.35050375  0.92725745  0.05444689  1
  I  I42  1  0.46519420  0.57047103  0.16550071  1
  I  I43  1  0.46519419  0.92952895  0.66550074  1
  I  I44  1  0.53480581  0.07047105  0.33449926  1
  I  I45  1  0.53480581  0.42952896  0.83449929  1
  I  I46  1  0.64949626  0.42725744  0.44555312  1
  I  I47  1  0.64949626  0.07274254  0.94555310  1
  I  I48  1  0.72635594  0.68826928  0.66632335  1
  I  I49  1  0.72635596  0.81173069  0.16632336  1
  I  I50  1  0.77364407  0.31173075  0.16632336  1
  I  I51  1  0.77364406  0.18826928  0.66632335  1
  I  I52  1  0.85050377  0.57274254  0.94555307  1
  I  I53  1  0.85050375  0.92725746  0.44555309  1
  I  I54  1  0.96519418  0.92952896  0.83449927  1
  I  I55  1  0.96519418  0.57047104  0.33449929  1
  N  N56  1  0.07259922  0.77241776  0.09953120  1
  N  N57  1  0.07259922  0.72758223  0.59953117  1
  N  N58  1  0.42740077  0.22758223  0.59953119  1
  N  N59  1  0.42740077  0.27241777  0.09953120  1
  N  N60  1  0.57259924  0.77241777  0.40046880  1
  N  N61  1  0.57259923  0.72758222  0.90046882  1
  N  N62  1  0.92740076  0.22758224  0.90046880  1
  N  N63  1  0.92740080  0.27241776  0.40046883  1
