# generated using pymatgen
data_AlH6I3N2
_symmetry_space_group_name_H-M   'P 1'
_cell_length_a   7.15384121
_cell_length_b   12.62047584
_cell_length_c   20.26115820
_cell_angle_alpha   90.00000078
_cell_angle_beta   89.99999934
_cell_angle_gamma   89.99999916
_symmetry_Int_Tables_number   1
_chemical_formula_structural   AlH6I3N2
_chemical_formula_sum   'Al8 H48 I24 N16'
_cell_volume   1829.27623987
_cell_formula_units_Z   8
loop_
 _symmetry_equiv_pos_site_id
 _symmetry_equiv_pos_as_xyz
  1  'x, y, z'
loop_
 _atom_site_type_symbol
 _atom_site_label
 _atom_site_symmetry_multiplicity
 _atom_site_fract_x
 _atom_site_fract_y
 _atom_site_fract_z
 _atom_site_occupancy
  Al  Al0  1  -0.00000001  0.50000000  0.50000000  1
  Al  Al1  1  0.50000000  -0.00000000  -0.00000000  1
  Al  Al2  1  -0.00000001  0.50000000  -0.00000000  1
  Al  Al3  1  0.49999999  0.00000000  0.50000000  1
  Al  Al4  1  0.07144246  0.76055776  0.25000001  1
  Al  Al5  1  0.42855754  0.26055777  0.24999997  1
  Al  Al6  1  0.92855754  0.23944224  0.74999998  1
  Al  Al7  1  0.57144246  0.73944224  0.75000003  1
  H  H8  1  0.83260929  0.58378086  0.39696544  1
  H  H9  1  0.66739071  0.08378085  0.10303456  1
  H  H10  1  0.16739065  0.41621913  0.89696543  1
  H  H11  1  0.33260936  0.91621913  0.60303457  1
  H  H12  1  0.16739071  0.41621914  0.60303456  1
  H  H13  1  0.33260929  0.91621914  0.89696544  1
  H  H14  1  0.83260935  0.58378087  0.10303457  1
  H  H15  1  0.66739066  0.08378087  0.39696543  1
  H  H16  1  0.84673059  0.67309968  0.45518543  1
  H  H17  1  0.65326940  0.17309967  0.04481456  1
  H  H18  1  0.15326941  0.32690032  0.95518543  1
  H  H19  1  0.34673058  0.82690032  0.54481457  1
  H  H20  1  0.15326941  0.32690033  0.54481456  1
  H  H21  1  0.34673060  0.82690033  0.95518544  1
  H  H22  1  0.84673059  0.67309968  0.04481456  1
  H  H23  1  0.65326942  0.17309968  0.45518543  1
  H  H24  1  0.68241711  0.58107063  0.45879647  1
  H  H25  1  0.81758288  0.08107064  0.04120353  1
  H  H26  1  0.31758287  0.41892937  0.95879645  1
  H  H27  1  0.18241712  0.91892938  0.54120355  1
  H  H28  1  0.31758288  0.41892936  0.54120353  1
  H  H29  1  0.18241712  0.91892936  0.95879648  1
  H  H30  1  0.68241712  0.58107063  0.04120355  1
  H  H31  1  0.81758287  0.08107063  0.45879645  1
  H  H32  1  0.88176400  0.55280212  0.61687796  1
  H  H33  1  0.61823598  0.05280211  0.88312204  1
  H  H34  1  0.11823600  0.44719787  0.11687796  1
  H  H35  1  0.38176400  0.94719787  0.38312204  1
  H  H36  1  0.11823600  0.44719789  0.38312204  1
  H  H37  1  0.38176401  0.94719788  0.11687796  1
  H  H38  1  0.88176400  0.55280212  0.88312204  1
  H  H39  1  0.61823600  0.05280213  0.61687796  1
  H  H40  1  0.88802946  0.66128635  0.57264991  1
  H  H41  1  0.61197052  0.16128636  0.92735009  1
  H  H42  1  0.11197049  0.33871363  0.07264991  1
  H  H43  1  0.38802948  0.83871364  0.42735009  1
  H  H44  1  0.11197055  0.33871364  0.42735010  1
  H  H45  1  0.38802949  0.83871364  0.07264992  1
  H  H46  1  0.88802951  0.66128637  0.92735009  1
  H  H47  1  0.61197051  0.16128637  0.57264991  1
  H  H48  1  0.08274003  0.61378394  0.60360611  1
  H  H49  1  0.41725993  0.11378393  0.89639389  1
  H  H50  1  0.91725992  0.38621607  0.10360611  1
  H  H51  1  0.58274006  0.88621607  0.39639389  1
  H  H52  1  0.91725995  0.38621606  0.39639389  1
  H  H53  1  0.58274006  0.88621607  0.10360611  1
  H  H54  1  0.08274008  0.61378393  0.89639389  1
  H  H55  1  0.41725994  0.11378392  0.60360611  1
  I  I56  1  0.29275148  0.63080551  0.45908132  1
  I  I57  1  0.20724853  0.13080550  0.04091869  1
  I  I58  1  0.70724854  0.36919449  0.95908133  1
  I  I59  1  0.79275148  0.86919448  0.54091866  1
  I  I60  1  0.70724851  0.36919449  0.54091868  1
  I  I61  1  0.79275148  0.86919451  0.95908131  1
  I  I62  1  0.29275147  0.63080551  0.04091867  1
  I  I63  1  0.20724853  0.13080552  0.45908134  1
  I  I64  1  0.95825841  0.86155303  0.35259865  1
  I  I65  1  0.54174161  0.36155303  0.14740134  1
  I  I66  1  0.04174167  0.13844698  0.85259862  1
  I  I67  1  0.45825834  0.63844698  0.64740139  1
  I  I68  1  0.04174159  0.13844697  0.64740134  1
  I  I69  1  0.45825840  0.63844697  0.85259867  1
  I  I70  1  0.95825833  0.86155301  0.14740138  1
  I  I71  1  0.54174166  0.36155302  0.35259861  1
  I  I72  1  0.93027941  0.57320594  0.25000002  1
  I  I73  1  0.56972060  0.07320594  0.24999996  1
  I  I74  1  0.06972059  0.42679406  0.74999998  1
  I  I75  1  0.43027942  0.92679406  0.75000004  1
  I  I76  1  0.07469899  0.24600575  0.24999999  1
  I  I77  1  0.42530101  0.74600575  0.24999999  1
  I  I78  1  0.92530101  0.75399425  0.75000000  1
  I  I79  1  0.57469899  0.25399425  0.75000001  1
  N  N80  1  0.32144856  0.90639139  0.55267606  1
  N  N81  1  0.17855144  0.40639139  0.94732394  1
  N  N82  1  0.67855146  0.09360860  0.05267605  1
  N  N83  1  0.82144855  0.59360860  0.44732395  1
  N  N84  1  0.67855144  0.09360861  0.44732395  1
  N  N85  1  0.82144856  0.59360861  0.05267605  1
  N  N86  1  0.32144854  0.90639139  0.94732396  1
  N  N87  1  0.17855145  0.40639140  0.55267605  1
  N  N88  1  0.95905223  0.59143722  0.58137566  1
  N  N89  1  0.54094775  0.09143723  0.91862434  1
  N  N90  1  0.04094775  0.40856277  0.08137566  1
  N  N91  1  0.45905224  0.90856277  0.41862434  1
  N  N92  1  0.04094777  0.40856278  0.41862434  1
  N  N93  1  0.45905225  0.90856277  0.08137566  1
  N  N94  1  0.95905226  0.59143723  0.91862434  1
  N  N95  1  0.54094776  0.09143723  0.58137566  1
