# generated using pymatgen
data_AlH6Br3N2
_symmetry_space_group_name_H-M   'P 1'
_cell_length_a   6.77663471
_cell_length_b   12.04694472
_cell_length_c   19.37892577
_cell_angle_alpha   89.99999894
_cell_angle_beta   89.99999983
_cell_angle_gamma   89.99999969
_symmetry_Int_Tables_number   1
_chemical_formula_structural   AlH6Br3N2
_chemical_formula_sum   'Al8 H48 Br24 N16'
_cell_volume   1582.05177595
_cell_formula_units_Z   8
loop_
 _symmetry_equiv_pos_site_id
 _symmetry_equiv_pos_as_xyz
  1  'x, y, z'
loop_
 _atom_site_type_symbol
 _atom_site_label
 _atom_site_symmetry_multiplicity
 _atom_site_fract_x
 _atom_site_fract_y
 _atom_site_fract_z
 _atom_site_occupancy
  Al  Al0  1  -0.00000001  0.50000001  0.50000001  1
  Al  Al1  1  0.50000000  -0.00000000  0.00000001  1
  Al  Al2  1  0.00000001  0.49999999  -0.00000001  1
  Al  Al3  1  0.50000001  -0.00000001  0.50000000  1
  Al  Al4  1  0.05435618  0.76016833  0.25000003  1
  Al  Al5  1  0.44564383  0.26016833  0.24999997  1
  Al  Al6  1  0.94564380  0.23983168  0.74999998  1
  Al  Al7  1  0.55435618  0.73983166  0.75000002  1
  H  H8  1  0.81134706  0.58249864  0.39303708  1
  H  H9  1  0.68865292  0.08249864  0.10696292  1
  H  H10  1  0.18865292  0.41750137  0.89303708  1
  H  H11  1  0.31134708  0.91750138  0.60696293  1
  H  H12  1  0.18865292  0.41750136  0.60696291  1
  H  H13  1  0.31134708  0.91750137  0.89303708  1
  H  H14  1  0.81134710  0.58249863  0.10696293  1
  H  H15  1  0.68865293  0.08249862  0.39303706  1
  H  H16  1  0.83656430  0.67963777  0.45128139  1
  H  H17  1  0.66343569  0.17963778  0.04871861  1
  H  H18  1  0.16343572  0.32036224  0.95128138  1
  H  H19  1  0.33656431  0.82036223  0.54871862  1
  H  H20  1  0.16343570  0.32036223  0.54871860  1
  H  H21  1  0.33656431  0.82036221  0.95128139  1
  H  H22  1  0.83656430  0.67963778  0.04871861  1
  H  H23  1  0.66343571  0.17963779  0.45128138  1
  H  H24  1  0.66233420  0.58469398  0.46002115  1
  H  H25  1  0.83766579  0.08469398  0.03997885  1
  H  H26  1  0.33766580  0.41530603  0.96002113  1
  H  H27  1  0.16233421  0.91530602  0.53997887  1
  H  H28  1  0.33766581  0.41530603  0.53997885  1
  H  H29  1  0.16233423  0.91530602  0.96002115  1
  H  H30  1  0.66233422  0.58469397  0.03997886  1
  H  H31  1  0.83766578  0.08469397  0.46002113  1
  H  H32  1  0.86097744  0.54965872  0.62124641  1
  H  H33  1  0.63902257  0.04965872  0.87875359  1
  H  H34  1  0.13902256  0.45034127  0.12124640  1
  H  H35  1  0.36097744  0.95034127  0.37875361  1
  H  H36  1  0.13902256  0.45034129  0.37875359  1
  H  H37  1  0.36097743  0.95034127  0.12124642  1
  H  H38  1  0.86097745  0.54965873  0.87875360  1
  H  H39  1  0.63902259  0.04965873  0.62124640  1
  H  H40  1  0.87421859  0.66537922  0.57748159  1
  H  H41  1  0.62578143  0.16537922  0.92251841  1
  H  H42  1  0.12578141  0.33462077  0.07748158  1
  H  H43  1  0.37421860  0.83462077  0.42251842  1
  H  H44  1  0.12578141  0.33462078  0.42251841  1
  H  H45  1  0.37421859  0.83462078  0.07748159  1
  H  H46  1  0.87421857  0.66537923  0.92251842  1
  H  H47  1  0.62578142  0.16537924  0.57748157  1
  H  H48  1  0.07486817  0.61339956  0.61183124  1
  H  H49  1  0.42513182  0.11339956  0.88816876  1
  H  H50  1  0.92513181  0.38660043  0.11183123  1
  H  H51  1  0.57486818  0.88660043  0.38816877  1
  H  H52  1  0.92513181  0.38660045  0.38816876  1
  H  H53  1  0.57486817  0.88660044  0.11183124  1
  H  H54  1  0.07486817  0.61339956  0.88816877  1
  H  H55  1  0.42513183  0.11339957  0.61183123  1
  Br  Br56  1  0.27810022  0.63067111  0.46641856  1
  Br  Br57  1  0.22189977  0.13067110  0.03358143  1
  Br  Br58  1  0.72189978  0.36932890  0.96641856  1
  Br  Br59  1  0.77810023  0.86932890  0.53358145  1
  Br  Br60  1  0.72189977  0.36932889  0.53358144  1
  Br  Br61  1  0.77810023  0.86932890  0.96641857  1
  Br  Br62  1  0.27810023  0.63067110  0.03358144  1
  Br  Br63  1  0.22189977  0.13067111  0.46641855  1
  Br  Br64  1  0.95001301  0.85675739  0.34791059  1
  Br  Br65  1  0.54998701  0.35675741  0.15208944  1
  Br  Br66  1  0.04998702  0.14324259  0.84791053  1
  Br  Br67  1  0.45001298  0.64324260  0.65208947  1
  Br  Br68  1  0.04998702  0.14324258  0.65208942  1
  Br  Br69  1  0.45001300  0.64324259  0.84791057  1
  Br  Br70  1  0.95001297  0.85675741  0.15208949  1
  Br  Br71  1  0.54998698  0.35675740  0.34791053  1
  Br  Br72  1  0.91119862  0.58374150  0.25000004  1
  Br  Br73  1  0.58880140  0.08374152  0.24999998  1
  Br  Br74  1  0.08880133  0.41625851  0.74999996  1
  Br  Br75  1  0.41119862  0.91625849  0.75000003  1
  Br  Br76  1  0.10617115  0.24584961  0.24999996  1
  Br  Br77  1  0.39382884  0.74584962  0.25000002  1
  Br  Br78  1  0.89382887  0.75415037  0.75000003  1
  Br  Br79  1  0.60617111  0.25415036  0.74999997  1
  N  N80  1  0.30726477  0.90373625  0.55456557  1
  N  N81  1  0.19273523  0.40373625  0.94543443  1
  N  N82  1  0.69273523  0.09626375  0.05456556  1
  N  N83  1  0.80726475  0.59626375  0.44543444  1
  N  N84  1  0.69273529  0.09626373  0.44543443  1
  N  N85  1  0.80726473  0.59626375  0.05456556  1
  N  N86  1  0.30726474  0.90373626  0.94543445  1
  N  N87  1  0.19273522  0.40373624  0.55456556  1
  N  N88  1  0.94710224  0.59172006  0.58633560  1
  N  N89  1  0.55289777  0.09172006  0.91366440  1
  N  N90  1  0.05289776  0.40827993  0.08633559  1
  N  N91  1  0.44710224  0.90827993  0.41366441  1
  N  N92  1  0.05289775  0.40827994  0.41366439  1
  N  N93  1  0.44710224  0.90827994  0.08633561  1
  N  N94  1  0.94710226  0.59172006  0.91366440  1
  N  N95  1  0.55289775  0.09172007  0.58633560  1
