# generated using pymatgen
data_AlHgBO4
_symmetry_space_group_name_H-M   'P 1'
_cell_length_a   5.90405715
_cell_length_b   9.68496413
_cell_length_c   10.51442158
_cell_angle_alpha   89.99985945
_cell_angle_beta   89.99999892
_cell_angle_gamma   90.00000369
_symmetry_Int_Tables_number   1
_chemical_formula_structural   AlHgBO4
_chemical_formula_sum   'Al8 Hg8 B8 O32'
_cell_volume   601.22074238
_cell_formula_units_Z   8
loop_
 _symmetry_equiv_pos_site_id
 _symmetry_equiv_pos_as_xyz
  1  'x, y, z'
loop_
 _atom_site_type_symbol
 _atom_site_label
 _atom_site_symmetry_multiplicity
 _atom_site_fract_x
 _atom_site_fract_y
 _atom_site_fract_z
 _atom_site_occupancy
  Al  Al0  1  0.50000003  -0.00000018  0.49999968  1
  Al  Al1  1  0.00000015  0.75000215  0.84345333  1
  Al  Al2  1  -0.00000007  0.24999783  0.15654657  1
  Al  Al3  1  0.49999993  0.75000217  0.34345337  1
  Al  Al4  1  0.00000004  0.00000018  0.00000032  1
  Al  Al5  1  0.50000015  0.24999785  0.65654673  1
  Al  Al6  1  0.49999997  0.50000017  0.49999967  1
  Al  Al7  1  -0.00000003  0.49999983  0.00000032  1
  Hg  Hg8  1  0.51372188  0.54359762  0.82861762  1
  Hg  Hg9  1  0.48627807  0.45640238  0.17138231  1
  Hg  Hg10  1  0.48627787  0.95640287  0.82861823  1
  Hg  Hg11  1  0.98627808  0.54359757  0.32861767  1
  Hg  Hg12  1  0.51372212  0.04359716  0.17138172  1
  Hg  Hg13  1  0.01372190  0.45640242  0.67138240  1
  Hg  Hg14  1  0.98627784  0.04359711  0.67138180  1
  Hg  Hg15  1  0.01372212  0.95640288  0.32861825  1
  B  B16  1  0.76285117  0.24472334  0.89885313  1
  B  B17  1  0.73714969  0.24472311  0.39885126  1
  B  B18  1  0.73714744  0.74473022  0.60114520  1
  B  B19  1  0.76285202  0.74472974  0.10114644  1
  B  B20  1  0.23714726  0.25526989  0.89885510  1
  B  B21  1  0.23714956  0.75527699  0.10114843  1
  B  B22  1  0.26285102  0.75527656  0.60114717  1
  B  B23  1  0.26285184  0.25527013  0.39885325  1
  O  O24  1  0.27391063  0.89873012  0.59152301  1
  O  O25  1  0.71291912  0.30520448  0.78288702  1
  O  O26  1  0.77391058  0.10126993  0.90847697  1
  O  O27  1  0.72608932  0.10127016  0.40847689  1
  O  O28  1  0.81242705  0.82691870  0.99383497  1
  O  O29  1  0.72608750  0.60127326  0.59152287  1
  O  O30  1  0.27391255  0.39872645  0.40847702  1
  O  O31  1  0.37570220  0.92528921  0.35392483  1
  O  O32  1  0.87570213  0.07471076  0.14607520  1
  O  O33  1  0.77391252  0.60127361  0.09152300  1
  O  O34  1  0.78708038  0.30520418  0.28288772  1
  O  O35  1  0.12429759  0.92528907  0.85392484  1
  O  O36  1  0.68757327  0.82691842  0.49383516  1
  O  O37  1  0.28708052  0.69479577  0.21711246  1
  O  O38  1  0.21291919  0.19479096  0.28288654  1
  O  O39  1  0.21291925  0.69479557  0.71711280  1
  O  O40  1  0.28708137  0.19479068  0.78288584  1
  O  O41  1  0.12429710  0.42528776  0.14607452  1
  O  O42  1  0.71291906  0.80520909  0.21711364  1
  O  O43  1  0.68757232  0.32691471  0.50616618  1
  O  O44  1  0.62429752  0.07471097  0.64607514  1
  O  O45  1  0.81242726  0.32691435  0.00616589  1
  O  O46  1  0.31242733  0.67308561  0.49383406  1
  O  O47  1  0.31242708  0.17308124  0.50616510  1
  O  O48  1  0.22608753  0.39872668  0.90847711  1
  O  O49  1  0.78708124  0.80520926  0.71711397  1
  O  O50  1  0.18757330  0.17308163  0.00616477  1
  O  O51  1  0.62429705  0.57471227  0.35392550  1
  O  O52  1  0.87570309  0.57471244  0.85392553  1
  O  O53  1  0.18757241  0.67308533  0.99383387  1
  O  O54  1  0.22608937  0.89872979  0.09152312  1
  O  O55  1  0.37570315  0.42528754  0.64607446  1
