# generated using pymatgen
data_AlHS6
_symmetry_space_group_name_H-M   'P 1'
_cell_length_a   6.34259041
_cell_length_b   6.78367440
_cell_length_c   10.73818628
_cell_angle_alpha   63.70679875
_cell_angle_beta   68.70588460
_cell_angle_gamma   77.05927359
_symmetry_Int_Tables_number   1
_chemical_formula_structural   AlHS6
_chemical_formula_sum   'Al2 H2 S12'
_cell_volume   384.83931515
_cell_formula_units_Z   2
loop_
 _symmetry_equiv_pos_site_id
 _symmetry_equiv_pos_as_xyz
  1  'x, y, z'
loop_
 _atom_site_type_symbol
 _atom_site_label
 _atom_site_symmetry_multiplicity
 _atom_site_fract_x
 _atom_site_fract_y
 _atom_site_fract_z
 _atom_site_occupancy
  Al  Al0  1  0.50029377  0.50022775  0.49976704  1
  Al  Al1  1  0.50023142  0.50003845  -0.00007255  1
  H  H2  1  -0.09845722  -0.03076674  0.24397529  1
  H  H3  1  0.09740716  0.03072338  0.75645669  1
  S  S4  1  0.83038545  0.27915524  -0.00166785  1
  S  S5  1  0.84842215  0.30992058  0.53730273  1
  S  S6  1  0.16954169  0.72051812  0.00149883  1
  S  S7  1  0.15170182  0.68987477  0.46266474  1
  S  S8  1  0.55933350  0.14764259  0.66709101  1
  S  S9  1  0.64445784  0.56485382  -0.24876768  1
  S  S10  1  0.44081707  0.85264356  0.33310853  1
  S  S11  1  0.35571409  0.43552571  0.24872739  1
  S  S12  1  0.62327478  0.53843401  0.25450968  1
  S  S13  1  0.37710017  0.46171799  0.74530046  1
  S  S14  1  0.94695913  0.18620484  0.17530731  1
  S  S15  1  0.05281717  0.81328593  0.82479838  1
