# generated using pymatgen
data_AlSBr3O2
_symmetry_space_group_name_H-M   'P 1'
_cell_length_a   6.83637900
_cell_length_b   8.28711682
_cell_length_c   8.36137558
_cell_angle_alpha   91.95982611
_cell_angle_beta   107.56676676
_cell_angle_gamma   110.33603712
_symmetry_Int_Tables_number   1
_chemical_formula_structural   AlSBr3O2
_chemical_formula_sum   'Al2 S2 Br6 O4'
_cell_volume   418.30767738
_cell_formula_units_Z   2
loop_
 _symmetry_equiv_pos_site_id
 _symmetry_equiv_pos_as_xyz
  1  'x, y, z'
loop_
 _atom_site_type_symbol
 _atom_site_label
 _atom_site_symmetry_multiplicity
 _atom_site_fract_x
 _atom_site_fract_y
 _atom_site_fract_z
 _atom_site_occupancy
  Al  Al0  1  0.68842113  0.19102035  0.84892349  1
  Al  Al1  1  0.31157874  0.80897839  0.15107574  1
  S  S2  1  0.39771382  0.77902223  0.78826841  1
  S  S3  1  0.60228533  0.22097683  0.21173104  1
  Br  Br4  1  0.94006238  0.72433537  0.08725152  1
  Br  Br5  1  0.07267940  0.80160373  0.63493715  1
  Br  Br6  1  0.05993755  0.27566442  0.91274805  1
  Br  Br7  1  0.48789636  0.68957660  0.36062903  1
  Br  Br8  1  0.92732020  0.19839620  0.36506262  1
  Br  Br9  1  0.51210349  0.31042365  0.63937106  1
  O  O10  1  0.57264287  0.95475744  0.79263524  1
  O  O11  1  0.61390461  0.22932220  0.03321405  1
  O  O12  1  0.38609497  0.77067785  0.96678782  1
  O  O13  1  0.42735915  0.04524474  0.20736477  1
