# generated using pymatgen
data_AlTl2Cl5
_symmetry_space_group_name_H-M   'P 1'
_cell_length_a   7.08247406
_cell_length_b   7.08247508
_cell_length_c   9.64114605
_cell_angle_alpha   90.00000628
_cell_angle_beta   90.00000232
_cell_angle_gamma   89.98612341
_symmetry_Int_Tables_number   1
_chemical_formula_structural   AlTl2Cl5
_chemical_formula_sum   'Al2 Tl4 Cl10'
_cell_volume   483.61381333
_cell_formula_units_Z   2
loop_
 _symmetry_equiv_pos_site_id
 _symmetry_equiv_pos_as_xyz
  1  'x, y, z'
loop_
 _atom_site_type_symbol
 _atom_site_label
 _atom_site_symmetry_multiplicity
 _atom_site_fract_x
 _atom_site_fract_y
 _atom_site_fract_z
 _atom_site_occupancy
  Al  Al0  1  -0.00000001  -0.00000001  0.49999999  1
  Al  Al1  1  -0.00000000  0.00000001  -0.00000001  1
  Tl  Tl2  1  0.49827485  0.99784254  0.74999994  1
  Tl  Tl3  1  0.50172514  0.00215744  0.25000008  1
  Tl  Tl4  1  0.99784250  0.49827488  0.74999992  1
  Tl  Tl5  1  0.00215750  0.50172511  0.25000010  1
  Cl  Cl6  1  0.76931596  0.76931600  0.49465486  1
  Cl  Cl7  1  0.23077474  0.76922531  -0.00000000  1
  Cl  Cl8  1  0.99270126  0.99270107  0.75000006  1
  Cl  Cl9  1  0.76922524  0.23077469  -0.00000003  1
  Cl  Cl10  1  0.76922539  0.23077462  0.50000005  1
  Cl  Cl11  1  0.23077463  0.76922535  0.49999998  1
  Cl  Cl12  1  0.23068404  0.23068403  0.50534512  1
  Cl  Cl13  1  0.76931596  0.76931595  0.00534498  1
  Cl  Cl14  1  0.23068404  0.23068407  0.99465498  1
  Cl  Cl15  1  0.00729877  0.00729894  0.24999999  1
