# generated using pymatgen
data_AlZnCrSe4
_symmetry_space_group_name_H-M   'P 1'
_cell_length_a   7.52379478
_cell_length_b   7.52380042
_cell_length_c   7.52376462
_cell_angle_alpha   120.01318915
_cell_angle_beta   120.01053970
_cell_angle_gamma   89.97991329
_symmetry_Int_Tables_number   1
_chemical_formula_structural   AlZnCrSe4
_chemical_formula_sum   'Al2 Zn2 Cr2 Se8'
_cell_volume   301.10276314
_cell_formula_units_Z   2
loop_
 _symmetry_equiv_pos_site_id
 _symmetry_equiv_pos_as_xyz
  1  'x, y, z'
loop_
 _atom_site_type_symbol
 _atom_site_label
 _atom_site_symmetry_multiplicity
 _atom_site_fract_x
 _atom_site_fract_y
 _atom_site_fract_z
 _atom_site_occupancy
  Al  Al0  1  0.50000001  0.00000001  0.00000001  1
  Al  Al1  1  0.50000001  0.50000001  0.50000001  1
  Zn  Zn2  1  0.87565793  0.62565770  0.25000031  1
  Zn  Zn3  1  0.12434208  0.37434231  0.74999971  1
  Cr  Cr4  1  0.50000000  -0.00000004  0.49999995  1
  Cr  Cr5  1  -0.00000003  -0.00000003  -0.00000002  1
  Se  Se6  1  0.74050142  0.76137779  0.52087426  1
  Se  Se7  1  0.74050241  0.21962658  0.97912574  1
  Se  Se8  1  0.74197784  0.76072046  0.98125905  1
  Se  Se9  1  0.27946209  0.76071976  0.51874191  1
  Se  Se10  1  0.25949857  0.23862222  0.47912574  1
  Se  Se11  1  0.25949759  0.78037343  0.02087426  1
  Se  Se12  1  0.25802215  0.23927954  0.01874096  1
  Se  Se13  1  0.72053792  0.23928026  0.48125811  1
