# generated using pymatgen
data_As2Br3OF5
_symmetry_space_group_name_H-M   'P 1'
_cell_length_a   19.91688605
_cell_length_b   6.49281118
_cell_length_c   8.14926829
_cell_angle_alpha   71.74629610
_cell_angle_beta   89.99999835
_cell_angle_gamma   89.99999928
_symmetry_Int_Tables_number   1
_chemical_formula_structural   As2Br3OF5
_chemical_formula_sum   'As8 Br12 O4 F20'
_cell_volume   1000.80532530
_cell_formula_units_Z   4
loop_
 _symmetry_equiv_pos_site_id
 _symmetry_equiv_pos_as_xyz
  1  'x, y, z'
loop_
 _atom_site_type_symbol
 _atom_site_label
 _atom_site_symmetry_multiplicity
 _atom_site_fract_x
 _atom_site_fract_y
 _atom_site_fract_z
 _atom_site_occupancy
  As  As0  1  0.62289651  0.54571931  0.81968854  1
  As  As1  1  0.61460575  0.14228332  0.17809076  1
  As  As2  1  0.87710350  0.54571925  0.31968841  1
  As  As3  1  0.37710349  0.45428072  0.18031144  1
  As  As4  1  0.38539425  0.85771673  0.82190925  1
  As  As5  1  0.12289649  0.45428072  0.68031160  1
  As  As6  1  0.11460574  0.85771668  0.32190935  1
  As  As7  1  0.88539426  0.14228330  0.67809067  1
  Br  Br8  1  0.36744999  0.68524733  0.62090127  1
  Br  Br9  1  0.71173209  0.97030686  0.14994805  1
  Br  Br10  1  0.28826792  0.02969319  0.85005194  1
  Br  Br11  1  0.86744999  0.31475259  0.87909870  1
  Br  Br12  1  0.78826792  0.97030689  0.64994795  1
  Br  Br13  1  0.46714966  0.11092270  0.72583195  1
  Br  Br14  1  0.03285034  0.11092267  0.22583208  1
  Br  Br15  1  0.21173208  0.02969312  0.35005203  1
  Br  Br16  1  0.96714966  0.88907735  0.77416792  1
  Br  Br17  1  0.53285035  0.88907740  0.27416806  1
  Br  Br18  1  0.63255004  0.31475271  0.37909872  1
  Br  Br19  1  0.13255002  0.68524734  0.12090135  1
  O  O20  1  0.58098912  0.30656686  0.98730440  1
  O  O21  1  0.91901090  0.30656690  0.48730433  1
  O  O22  1  0.41901089  0.69343319  0.01269558  1
  O  O23  1  0.08098910  0.69343309  0.51269566  1
  F  F24  1  0.34365209  0.63815573  0.28076155  1
  F  F25  1  0.69615297  0.51248267  0.94975783  1
  F  F26  1  0.15634790  0.63815591  0.78076153  1
  F  F27  1  0.91070890  0.72236348  0.42429107  1
  F  F28  1  0.54768815  0.56036144  0.70104183  1
  F  F29  1  0.45231185  0.43963853  0.29895815  1
  F  F30  1  0.80384703  0.51248273  0.44975766  1
  F  F31  1  0.65634792  0.36184427  0.71923845  1
  F  F32  1  0.58929108  0.72236343  0.92429127  1
  F  F33  1  0.19615296  0.48751720  0.55024237  1
  F  F34  1  0.84156118  0.76596795  0.15587996  1
  F  F35  1  0.65843884  0.76596812  0.65588021  1
  F  F36  1  0.30384703  0.48751736  0.05024217  1
  F  F37  1  0.08929108  0.27763649  0.57570893  1
  F  F38  1  0.34156117  0.23403186  0.34411978  1
  F  F39  1  0.41070891  0.27763662  0.07570866  1
  F  F40  1  0.84365209  0.36184405  0.21923848  1
  F  F41  1  0.04768813  0.43963864  0.79895827  1
  F  F42  1  0.95231186  0.56036134  0.20104173  1
  F  F43  1  0.15843881  0.23403199  0.84412006  1
