# generated using pymatgen
data_As3Pb5ClO12
_symmetry_space_group_name_H-M   'P 1'
_cell_length_a   10.67323995
_cell_length_b   10.67325484
_cell_length_c   7.47858687
_cell_angle_alpha   90.00001965
_cell_angle_beta   89.99999351
_cell_angle_gamma   120.00005890
_symmetry_Int_Tables_number   1
_chemical_formula_structural   As3Pb5ClO12
_chemical_formula_sum   'As6 Pb10 Cl2 O24'
_cell_volume   737.80750557
_cell_formula_units_Z   2
loop_
 _symmetry_equiv_pos_site_id
 _symmetry_equiv_pos_as_xyz
  1  'x, y, z'
loop_
 _atom_site_type_symbol
 _atom_site_label
 _atom_site_symmetry_multiplicity
 _atom_site_fract_x
 _atom_site_fract_y
 _atom_site_fract_z
 _atom_site_occupancy
  As  As0  1  0.40757817  0.03820083  0.25000040  1
  As  As1  1  0.59242169  0.96179988  0.74999957  1
  As  As2  1  0.96180229  0.36938063  0.25000002  1
  As  As3  1  0.03819818  0.63061990  0.75000041  1
  As  As4  1  0.63061938  0.59242215  0.25000019  1
  As  As5  1  0.36938028  0.40757773  0.74999979  1
  Pb  Pb6  1  0.33333360  0.66666645  0.00466074  1
  Pb  Pb7  1  0.66666637  0.33333358  0.99533927  1
  Pb  Pb8  1  0.66666634  0.33333356  0.50466080  1
  Pb  Pb9  1  0.33333367  0.66666639  0.49533922  1
  Pb  Pb10  1  0.27480083  0.26167317  0.25000001  1
  Pb  Pb11  1  0.72519919  0.73832681  0.74999997  1
  Pb  Pb12  1  0.73832627  0.01312733  0.25000001  1
  Pb  Pb13  1  0.26167375  0.98687269  0.75000002  1
  Pb  Pb14  1  0.98687301  0.72519901  0.24999997  1
  Pb  Pb15  1  0.01312705  0.27480104  0.75000000  1
  Cl  Cl16  1  -0.00000045  -0.00000050  0.24999995  1
  Cl  Cl17  1  0.00000045  0.00000052  0.74999999  1
  O  O18  1  0.14287649  0.49460809  0.24999999  1
  O  O19  1  0.85712326  0.50539169  0.75000000  1
  O  O20  1  0.50539286  0.64826833  0.25000000  1
  O  O21  1  0.49460721  0.35173159  0.75000000  1
  O  O22  1  0.35173079  0.85712218  0.24999996  1
  O  O23  1  0.64826911  0.14287740  0.75000005  1
  O  O24  1  0.59752770  0.13943545  0.24999997  1
  O  O25  1  0.40247238  0.86056456  0.75000004  1
  O  O26  1  0.86056467  0.45809176  0.25000000  1
  O  O27  1  0.13943539  0.54190823  0.74999997  1
  O  O28  1  0.54190801  0.40247239  0.24999999  1
  O  O29  1  0.45809205  0.59752766  0.75000004  1
  O  O30  1  0.35557253  0.09947418  0.06608706  1
  O  O31  1  0.64442752  0.90052571  0.93391326  1
  O  O32  1  0.90052561  0.25609738  0.06608581  1
  O  O33  1  0.64442740  0.90052581  0.56608711  1
  O  O34  1  0.09947427  0.74390237  0.93391384  1
  O  O35  1  0.35557265  0.09947405  0.43391265  1
  O  O36  1  0.74390279  0.64442792  0.06608553  1
  O  O37  1  0.09947436  0.74390258  0.56608579  1
  O  O38  1  0.25609725  0.35557205  0.93391432  1
  O  O39  1  0.90052559  0.25609739  0.43391423  1
  O  O40  1  0.25609733  0.35557216  0.56608584  1
  O  O41  1  0.74390272  0.64442789  0.43391425  1
