# generated using pymatgen
data_As3Pb2O6F
_symmetry_space_group_name_H-M   'P 1'
_cell_length_a   5.45128664
_cell_length_b   8.53740332
_cell_length_c   20.46123707
_cell_angle_alpha   89.99999195
_cell_angle_beta   89.99999114
_cell_angle_gamma   89.99999469
_symmetry_Int_Tables_number   1
_chemical_formula_structural   As3Pb2O6F
_chemical_formula_sum   'As12 Pb8 O24 F4'
_cell_volume   952.26254923
_cell_formula_units_Z   4
loop_
 _symmetry_equiv_pos_site_id
 _symmetry_equiv_pos_as_xyz
  1  'x, y, z'
loop_
 _atom_site_type_symbol
 _atom_site_label
 _atom_site_symmetry_multiplicity
 _atom_site_fract_x
 _atom_site_fract_y
 _atom_site_fract_z
 _atom_site_occupancy
  As  As0  1  0.74999993  0.96633338  0.17814187  1
  As  As1  1  0.25000019  0.69851704  0.45123887  1
  As  As2  1  0.75000002  0.23539240  0.83156728  1
  As  As3  1  0.25000006  0.46633341  0.32185809  1
  As  As4  1  0.24999985  0.76460786  0.16843293  1
  As  As5  1  0.24999986  0.80148277  0.95123886  1
  As  As6  1  0.74999997  0.53366671  0.67814206  1
  As  As7  1  0.75000029  0.30148217  0.54876121  1
  As  As8  1  0.75000018  0.26460784  0.33156706  1
  As  As9  1  0.24999998  0.03366668  0.82185806  1
  As  As10  1  0.74999986  0.19851685  0.04876109  1
  As  As11  1  0.24999995  0.73539243  0.66843270  1
  Pb  Pb12  1  0.25000062  0.14358687  0.64132969  1
  Pb  Pb13  1  0.74999971  0.59948170  0.06540489  1
  Pb  Pb14  1  0.24999997  0.40051838  0.93459510  1
  Pb  Pb15  1  0.75000039  0.85641307  0.35867031  1
  Pb  Pb16  1  0.24999957  0.35641309  0.14132971  1
  Pb  Pb17  1  0.74999993  0.64358693  0.85867029  1
  Pb  Pb18  1  0.25000029  0.09948173  0.43459507  1
  Pb  Pb19  1  0.75000032  0.90051826  0.56540493  1
  O  O20  1  0.51014230  0.15955244  0.55199918  1
  O  O21  1  0.01014165  0.65955214  0.94800070  1
  O  O22  1  0.25000025  0.61624913  0.10837911  1
  O  O23  1  0.00182140  0.12090157  0.87017457  1
  O  O24  1  0.74999994  0.34490027  0.64049496  1
  O  O25  1  0.25000008  0.65509945  0.35950489  1
  O  O26  1  0.25000002  0.84490056  0.85950496  1
  O  O27  1  0.01014170  0.84044800  0.44800072  1
  O  O28  1  0.50182151  0.87909858  0.12982550  1
  O  O29  1  0.24999976  0.88375038  0.60837935  1
  O  O30  1  0.98985846  0.34044807  0.05199930  1
  O  O31  1  0.74999990  0.15509939  0.14049511  1
  O  O32  1  0.48985821  0.65955217  0.94800073  1
  O  O33  1  -0.00182173  0.87909852  0.12982543  1
  O  O34  1  0.49817851  0.37909863  0.37017450  1
  O  O35  1  0.74999987  0.11624919  0.39162081  1
  O  O36  1  -0.00182134  0.62090144  0.62982547  1
  O  O37  1  0.98985804  0.15955229  0.55199929  1
  O  O38  1  0.48985865  0.84044796  0.44800070  1
  O  O39  1  0.51014126  0.34044808  0.05199933  1
  O  O40  1  0.00182171  0.37909858  0.37017455  1
  O  O41  1  0.49817858  0.12090154  0.87017453  1
  O  O42  1  0.74999985  0.38375057  0.89162076  1
  O  O43  1  0.50182131  0.62090148  0.62982548  1
  F  F44  1  0.74999907  0.97751224  0.67381127  1
  F  F45  1  0.75000064  0.52248787  0.17381126  1
  F  F46  1  0.24999988  0.47751220  0.82618876  1
  F  F47  1  0.24999960  0.02248769  0.32618871  1
