# generated using pymatgen
data_As3Pb5IO9
_symmetry_space_group_name_H-M   'P 1'
_cell_length_a   10.91222182
_cell_length_b   10.91219841
_cell_length_c   7.23185440
_cell_angle_alpha   89.99997832
_cell_angle_beta   90.00001295
_cell_angle_gamma   120.00025424
_symmetry_Int_Tables_number   1
_chemical_formula_structural   As3Pb5IO9
_chemical_formula_sum   'As6 Pb10 I2 O18'
_cell_volume   745.76952465
_cell_formula_units_Z   2
loop_
 _symmetry_equiv_pos_site_id
 _symmetry_equiv_pos_as_xyz
  1  'x, y, z'
loop_
 _atom_site_type_symbol
 _atom_site_label
 _atom_site_symmetry_multiplicity
 _atom_site_fract_x
 _atom_site_fract_y
 _atom_site_fract_z
 _atom_site_occupancy
  As  As0  1  0.41822159  0.39248189  0.25000020  1
  As  As1  1  0.02573117  0.41822189  0.75000017  1
  As  As2  1  0.39248685  0.97426496  0.74999999  1
  As  As3  1  0.60751312  0.02573503  0.25000003  1
  As  As4  1  0.97426904  0.58177809  0.24999983  1
  As  As5  1  0.58177838  0.60751815  0.74999978  1
  Pb  Pb6  1  0.33333288  0.66666667  0.98486195  1
  Pb  Pb7  1  0.66666703  0.33333326  0.48486194  1
  Pb  Pb8  1  0.66666708  0.33333321  0.01513807  1
  Pb  Pb9  1  0.33333296  0.66666680  0.51513805  1
  Pb  Pb10  1  0.28482234  0.04836359  0.25000005  1
  Pb  Pb11  1  0.23645861  0.28482198  0.74999997  1
  Pb  Pb12  1  0.04836400  0.76354131  0.75000010  1
  Pb  Pb13  1  0.95163601  0.23645870  0.24999999  1
  Pb  Pb14  1  0.76354140  0.71517803  0.24999994  1
  Pb  Pb15  1  0.71517764  0.95163638  0.74999991  1
  I  I16  1  -0.00000001  0.00000002  -0.00000002  1
  I  I17  1  -0.00000001  -0.00000002  0.49999998  1
  O  O18  1  0.61159668  0.45627783  0.24999994  1
  O  O19  1  0.15531979  0.61159794  0.75000002  1
  O  O20  1  0.45627781  0.84468020  0.75000003  1
  O  O21  1  0.54372218  0.15531980  0.25000003  1
  O  O22  1  0.84468017  0.38840204  0.24999996  1
  O  O23  1  0.38840336  0.54372218  0.75000004  1
  O  O24  1  0.37793005  0.27382748  0.06026312  1
  O  O25  1  0.10410553  0.37792948  0.56025819  1
  O  O26  1  0.27382564  0.89589597  0.56026084  1
  O  O27  1  0.72617442  0.10410410  0.06026080  1
  O  O28  1  0.89589451  0.62207057  0.06025812  1
  O  O29  1  0.62206988  0.72617240  0.56026338  1
  O  O30  1  0.62206998  0.72617248  0.93973678  1
  O  O31  1  0.89589432  0.62207048  0.43974204  1
  O  O32  1  0.72617435  0.10410398  0.43973916  1
  O  O33  1  0.27382557  0.89589596  0.93973919  1
  O  O34  1  0.10410555  0.37792954  0.93974185  1
  O  O35  1  0.37793012  0.27382762  0.43973657  1
