# generated using pymatgen
data_As3Pb2IO6
_symmetry_space_group_name_H-M   'P 1'
_cell_length_a   5.49105134
_cell_length_b   8.53911921
_cell_length_c   21.31471522
_cell_angle_alpha   90.00000262
_cell_angle_beta   89.99999682
_cell_angle_gamma   90.00000205
_symmetry_Int_Tables_number   1
_chemical_formula_structural   As3Pb2IO6
_chemical_formula_sum   'As12 Pb8 I4 O24'
_cell_volume   999.42018234
_cell_formula_units_Z   4
loop_
 _symmetry_equiv_pos_site_id
 _symmetry_equiv_pos_as_xyz
  1  'x, y, z'
loop_
 _atom_site_type_symbol
 _atom_site_label
 _atom_site_symmetry_multiplicity
 _atom_site_fract_x
 _atom_site_fract_y
 _atom_site_fract_z
 _atom_site_occupancy
  As  As0  1  0.74999999  0.95998972  0.16114527  1
  As  As1  1  0.25000001  0.69579074  0.45977412  1
  As  As2  1  0.75000001  0.23213264  0.84840856  1
  As  As3  1  0.25000002  0.45998973  0.33885478  1
  As  As4  1  0.24999995  0.76786731  0.15159143  1
  As  As5  1  0.24999995  0.80420921  0.95977408  1
  As  As6  1  0.74999996  0.54001035  0.66114522  1
  As  As7  1  0.75000008  0.30420932  0.54022590  1
  As  As8  1  0.75000005  0.26786736  0.34840862  1
  As  As9  1  0.24999995  0.04001023  0.83885474  1
  As  As10  1  0.75000004  0.19579071  0.04022592  1
  As  As11  1  0.24999995  0.73213268  0.65159138  1
  Pb  Pb12  1  0.25000010  0.14497299  0.63386675  1
  Pb  Pb13  1  0.75000003  0.61188011  0.05141051  1
  Pb  Pb14  1  0.25000004  0.38811981  0.94858948  1
  Pb  Pb15  1  0.74999997  0.85502706  0.36613326  1
  Pb  Pb16  1  0.25000005  0.35502705  0.13386677  1
  Pb  Pb17  1  0.74999999  0.64497291  0.86613322  1
  Pb  Pb18  1  0.25000011  0.11188015  0.44858950  1
  Pb  Pb19  1  0.75000009  0.88811992  0.55141050  1
  I  I20  1  0.74999994  0.95411772  0.71583215  1
  I  I21  1  0.74999999  0.54588223  0.21583217  1
  I  I22  1  0.25000003  0.45411772  0.78416782  1
  I  I23  1  0.24999998  0.04588228  0.28416786  1
  O  O24  1  0.50906216  0.16128401  0.54434331  1
  O  O25  1  0.00906218  0.66128382  0.95565662  1
  O  O26  1  0.25000000  0.61248594  0.09605300  1
  O  O27  1  0.00459515  0.12255179  0.88826911  1
  O  O28  1  0.74999993  0.34570028  0.62669195  1
  O  O29  1  0.25000007  0.65429978  0.37330807  1
  O  O30  1  0.24999999  0.84570022  0.87330804  1
  O  O31  1  0.00906216  0.83871611  0.45565665  1
  O  O32  1  0.50459517  0.87744815  0.11173092  1
  O  O33  1  0.24999998  0.88751408  0.59605297  1
  O  O34  1  0.99093783  0.33871609  0.04434338  1
  O  O35  1  0.74999996  0.15429974  0.12669197  1
  O  O36  1  0.49093783  0.66128388  0.95565665  1
  O  O37  1  0.99540481  0.87744815  0.11173089  1
  O  O38  1  0.49540485  0.37744822  0.38826914  1
  O  O39  1  0.74999994  0.11248598  0.40394703  1
  O  O40  1  0.99540480  0.62255184  0.61173083  1
  O  O41  1  0.99093783  0.16128391  0.54434337  1
  O  O42  1  0.49093785  0.83871612  0.45565669  1
  O  O43  1  0.50906219  0.33871606  0.04434333  1
  O  O44  1  0.00459520  0.37744820  0.38826917  1
  O  O45  1  0.49540476  0.12255181  0.88826909  1
  O  O46  1  0.74999995  0.38751402  0.90394698  1
  O  O47  1  0.50459514  0.62255185  0.61173085  1
