# generated using pymatgen
data_As3Pb5BrO9
_symmetry_space_group_name_H-M   'P 1'
_cell_length_a   10.76148913
_cell_length_b   10.76150230
_cell_length_c   7.10771650
_cell_angle_alpha   90.00000152
_cell_angle_beta   89.99999660
_cell_angle_gamma   120.00022283
_symmetry_Int_Tables_number   1
_chemical_formula_structural   As3Pb5BrO9
_chemical_formula_sum   'As6 Pb10 Br2 O18'
_cell_volume   712.86128302
_cell_formula_units_Z   2
loop_
 _symmetry_equiv_pos_site_id
 _symmetry_equiv_pos_as_xyz
  1  'x, y, z'
loop_
 _atom_site_type_symbol
 _atom_site_label
 _atom_site_symmetry_multiplicity
 _atom_site_fract_x
 _atom_site_fract_y
 _atom_site_fract_z
 _atom_site_occupancy
  As  As0  1  0.41749492  0.39681812  0.25000003  1
  As  As1  1  0.02067456  0.41749435  0.74999995  1
  As  As2  1  0.39681845  0.97932578  0.74999993  1
  As  As3  1  0.60318153  0.02067424  0.24999987  1
  As  As4  1  0.97932543  0.58250562  0.24999994  1
  As  As5  1  0.58250502  0.60318185  0.74999985  1
  Pb  Pb6  1  0.33333302  0.66666623  0.98842909  1
  Pb  Pb7  1  0.66666693  0.33333376  0.48842897  1
  Pb  Pb8  1  0.66666700  0.33333376  0.01157097  1
  Pb  Pb9  1  0.33333310  0.66666629  0.51157104  1
  Pb  Pb10  1  0.27565355  0.04592509  0.24999999  1
  Pb  Pb11  1  0.22972790  0.27565373  0.74999997  1
  Pb  Pb12  1  0.04592599  0.77027200  0.74999997  1
  Pb  Pb13  1  0.95407406  0.22972800  0.25000003  1
  Pb  Pb14  1  0.77027207  0.72434628  0.24999997  1
  Pb  Pb15  1  0.72434647  0.95407494  0.74999997  1
  Br  Br16  1  0.00000002  0.00000000  -0.00000002  1
  Br  Br17  1  0.00000000  -0.00000002  0.50000003  1
  O  O18  1  0.61265409  0.45962968  0.25000000  1
  O  O19  1  0.15302479  0.61265480  0.75000006  1
  O  O20  1  0.45963031  0.84697419  0.75000005  1
  O  O21  1  0.54036967  0.15302575  0.24999999  1
  O  O22  1  0.84697524  0.38734520  0.25000000  1
  O  O23  1  0.38734590  0.54037034  0.75000001  1
  O  O24  1  0.37415093  0.27555018  0.05738982  1
  O  O25  1  0.09860121  0.37415103  0.55738893  1
  O  O26  1  0.27555017  0.90139907  0.55738952  1
  O  O27  1  0.72444989  0.09860099  0.05738938  1
  O  O28  1  0.90139875  0.62584894  0.05738883  1
  O  O29  1  0.62584899  0.72444978  0.55738981  1
  O  O30  1  0.62584908  0.72444980  0.94261015  1
  O  O31  1  0.90139873  0.62584897  0.44261122  1
  O  O32  1  0.72444992  0.09860098  0.44261056  1
  O  O33  1  0.27555008  0.90139900  0.94261065  1
  O  O34  1  0.09860126  0.37415110  0.94261130  1
  O  O35  1  0.37415097  0.27555021  0.44261019  1
