# generated using pymatgen
data_AsCl9O
_symmetry_space_group_name_H-M   'P 1'
_cell_length_a   6.34378397
_cell_length_b   9.93917305
_cell_length_c   19.09245413
_cell_angle_alpha   89.99991407
_cell_angle_beta   89.99950500
_cell_angle_gamma   90.00031172
_symmetry_Int_Tables_number   1
_chemical_formula_structural   AsCl9O
_chemical_formula_sum   'As4 Cl36 O4'
_cell_volume   1203.81678141
_cell_formula_units_Z   4
loop_
 _symmetry_equiv_pos_site_id
 _symmetry_equiv_pos_as_xyz
  1  'x, y, z'
loop_
 _atom_site_type_symbol
 _atom_site_label
 _atom_site_symmetry_multiplicity
 _atom_site_fract_x
 _atom_site_fract_y
 _atom_site_fract_z
 _atom_site_occupancy
  As  As0  1  0.37953548  0.96234827  0.41047822  1
  As  As1  1  0.62046544  0.46234621  0.58952286  1
  As  As2  1  0.87954182  0.46234883  0.08952229  1
  As  As3  1  0.12046760  0.96234810  0.91047846  1
  Cl  Cl4  1  0.15169160  -0.05745374  0.32290206  1
  Cl  Cl5  1  -0.15168712  0.44254437  0.67709970  1
  Cl  Cl6  1  0.65169369  0.44254461  0.17710093  1
  Cl  Cl7  1  0.34831317  -0.05745482  0.82290080  1
  Cl  Cl8  1  0.56227121  0.75788023  0.29790465  1
  Cl  Cl9  1  0.43772315  0.25787963  0.70209609  1
  Cl  Cl10  1  0.06227732  0.25788466  0.20209455  1
  Cl  Cl11  1  0.93773038  0.75787919  0.79790724  1
  Cl  Cl12  1  0.53228726  0.13123450  0.34945916  1
  Cl  Cl13  1  0.46771823  0.63123153  0.65054378  1
  Cl  Cl14  1  0.03229563  0.63122770  0.15054293  1
  Cl  Cl15  1  0.96771731  0.13123284  0.84945814  1
  Cl  Cl16  1  0.26672974  0.76369587  0.45323229  1
  Cl  Cl17  1  0.73327416  0.26369481  0.54676919  1
  Cl  Cl18  1  0.76672931  0.26369827  0.04676839  1
  Cl  Cl19  1  0.23327295  0.76369507  0.95323113  1
  Cl  Cl20  1  0.22059699  0.08644767  0.48634038  1
  Cl  Cl21  1  0.77940768  0.58644815  0.51366021  1
  Cl  Cl22  1  0.72060088  0.58644864  0.01366195  1
  Cl  Cl23  1  0.27940033  0.08644440  -0.01366006  1
  Cl  Cl24  1  0.68900931  0.92395371  0.46103669  1
  Cl  Cl25  1  0.31099720  0.42395353  0.53896500  1
  Cl  Cl26  1  0.18901100  0.42395254  0.03896241  1
  Cl  Cl27  1  0.81099224  0.92395207  -0.03896330  1
  Cl  Cl28  1  0.81084474  0.64827082  0.33093479  1
  Cl  Cl29  1  0.18915912  0.14827272  0.66906636  1
  Cl  Cl30  1  0.31084742  0.14827606  0.16906506  1
  Cl  Cl31  1  0.68915449  0.64827367  0.83093287  1
  Cl  Cl32  1  0.90571984  0.30720061  0.37026433  1
  Cl  Cl33  1  0.09428415  0.80719776  0.62973890  1
  Cl  Cl34  1  0.40572373  0.80720319  0.12973558  1
  Cl  Cl35  1  0.59426310  0.30720444  0.87025996  1
  Cl  Cl36  1  0.14367464  0.46076651  0.37171338  1
  Cl  Cl37  1  0.85631892  -0.03923623  0.62829023  1
  Cl  Cl38  1  0.64365387  -0.03923117  0.12827963  1
  Cl  Cl39  1  0.35628155  0.46077048  0.87170183  1
  O  O40  1  0.31245586  0.44561567  0.31645067  1
  O  O41  1  0.68754474  0.94561045  0.68354951  1
  O  O42  1  0.81247848  0.94560823  0.18355591  1
  O  O43  1  0.18753136  0.44561264  0.81644486  1
