# generated using pymatgen
data_AsH3Cl6O
_symmetry_space_group_name_H-M   'P 1'
_cell_length_a   5.97047901
_cell_length_b   7.44924015
_cell_length_c   9.51326885
_cell_angle_alpha   86.62272253
_cell_angle_beta   84.26478314
_cell_angle_gamma   77.65769499
_symmetry_Int_Tables_number   1
_chemical_formula_structural   AsH3Cl6O
_chemical_formula_sum   'As2 H6 Cl12 O2'
_cell_volume   410.95284907
_cell_formula_units_Z   2
loop_
 _symmetry_equiv_pos_site_id
 _symmetry_equiv_pos_as_xyz
  1  'x, y, z'
loop_
 _atom_site_type_symbol
 _atom_site_label
 _atom_site_symmetry_multiplicity
 _atom_site_fract_x
 _atom_site_fract_y
 _atom_site_fract_z
 _atom_site_occupancy
  As  As0  1  0.44850421  0.75864837  0.75851902  1
  As  As1  1  0.55149562  0.24135155  0.24148098  1
  H  H2  1  0.07444537  0.34345703  0.74526397  1
  H  H3  1  0.92555464  0.65654318  0.25473599  1
  H  H4  1  0.04254745  0.13398564  0.70347615  1
  H  H5  1  0.95745285  0.86601362  0.29652378  1
  H  H6  1  0.89563783  0.23957783  0.84538784  1
  H  H7  1  0.10436163  0.76042195  0.15461287  1
  Cl  Cl8  1  0.34357965  0.47404188  0.74254185  1
  Cl  Cl9  1  0.65642019  0.52595817  0.25745807  1
  Cl  Cl10  1  0.16271758  0.89480201  0.61145488  1
  Cl  Cl11  1  0.83728255  0.10519801  0.38854522  1
  Cl  Cl12  1  0.15765469  0.83297312  -0.05869543  1
  Cl  Cl13  1  0.84234532  0.16702679  0.05869552  1
  Cl  Cl14  1  0.53209587  0.03641872  0.77303454  1
  Cl  Cl15  1  0.46790428  0.96358123  0.22696545  1
  Cl  Cl16  1  0.69750871  0.62932232  0.91251368  1
  Cl  Cl17  1  0.30249143  0.37067766  0.08748632  1
  Cl  Cl18  1  0.69904607  0.68155058  0.57242619  1
  Cl  Cl19  1  0.30095390  0.31844938  0.42757377  1
  O  O20  1  0.96285503  0.25837031  0.74516914  1
  O  O21  1  0.03714512  0.74163066  0.25483018  1
