# generated using pymatgen
data_AsPbF7
_symmetry_space_group_name_H-M   'P 1'
_cell_length_a   7.52284144
_cell_length_b   8.37869978
_cell_length_c   10.01184845
_cell_angle_alpha   89.99998432
_cell_angle_beta   90.00001510
_cell_angle_gamma   90.00000116
_symmetry_Int_Tables_number   1
_chemical_formula_structural   AsPbF7
_chemical_formula_sum   'As4 Pb4 F28'
_cell_volume   631.06312630
_cell_formula_units_Z   4
loop_
 _symmetry_equiv_pos_site_id
 _symmetry_equiv_pos_as_xyz
  1  'x, y, z'
loop_
 _atom_site_type_symbol
 _atom_site_label
 _atom_site_symmetry_multiplicity
 _atom_site_fract_x
 _atom_site_fract_y
 _atom_site_fract_z
 _atom_site_occupancy
  As  As0  1  0.25000010  0.80163263  0.07402848  1
  As  As1  1  0.74999989  0.19836731  0.92597153  1
  As  As2  1  0.24999991  0.30163262  0.42597178  1
  As  As3  1  0.75000009  0.69836732  0.57402821  1
  Pb  Pb4  1  0.25000002  0.63382117  0.73093213  1
  Pb  Pb5  1  0.74999997  0.36617879  0.26906786  1
  Pb  Pb6  1  0.24999999  0.13382063  0.76906779  1
  Pb  Pb7  1  0.75000002  0.86617933  0.23093222  1
  F  F8  1  0.91587203  0.13625487  0.81046080  1
  F  F9  1  0.41587194  0.86374495  0.18953961  1
  F  F10  1  0.58412797  0.63625462  0.68953891  1
  F  F11  1  0.08412802  0.36374515  0.31046067  1
  F  F12  1  0.08412796  0.86374520  0.18953927  1
  F  F13  1  0.58412810  0.13625508  0.81046043  1
  F  F14  1  0.41587205  0.36374541  0.31046104  1
  F  F15  1  0.91587196  0.63625485  0.68953927  1
  F  F16  1  0.75000003  0.60658840  0.15518581  1
  F  F17  1  0.24999997  0.39341156  0.84481420  1
  F  F18  1  0.75000001  0.10658814  0.34481544  1
  F  F19  1  0.24999999  0.89341182  0.65518458  1
  F  F20  1  0.75000035  0.49928776  0.50848250  1
  F  F21  1  0.24999964  0.50071225  0.49151747  1
  F  F22  1  0.74999966  -0.00071231  -0.00848288  1
  F  F23  1  0.25000035  0.00071236  0.00848288  1
  F  F24  1  0.74999980  0.88997466  0.63930342  1
  F  F25  1  0.25000022  0.11002538  0.36069656  1
  F  F26  1  0.75000019  0.38997481  0.86069657  1
  F  F27  1  0.24999978  0.61002524  0.13930346  1
  F  F28  1  0.91613047  0.74889345  0.45396454  1
  F  F29  1  0.41613004  0.25110679  0.54603578  1
  F  F30  1  0.58386948  0.24889321  0.04603525  1
  F  F31  1  0.08386993  0.75110703  0.95396442  1
  F  F32  1  0.08386953  0.25110653  0.54603543  1
  F  F33  1  0.58386998  0.74889322  0.45396418  1
  F  F34  1  0.41613051  0.75110678  0.95396477  1
  F  F35  1  0.91613004  0.24889299  0.04603563  1
