# generated using pymatgen
data_Au2CO3
_symmetry_space_group_name_H-M   'P 1'
_cell_length_a   3.24228190
_cell_length_b   5.59472749
_cell_length_c   9.66001562
_cell_angle_alpha   90.00047979
_cell_angle_beta   89.99963619
_cell_angle_gamma   94.92754496
_symmetry_Int_Tables_number   1
_chemical_formula_structural   Au2CO3
_chemical_formula_sum   'Au4 C2 O6'
_cell_volume   174.58199904
_cell_formula_units_Z   2
loop_
 _symmetry_equiv_pos_site_id
 _symmetry_equiv_pos_as_xyz
  1  'x, y, z'
loop_
 _atom_site_type_symbol
 _atom_site_label
 _atom_site_symmetry_multiplicity
 _atom_site_fract_x
 _atom_site_fract_y
 _atom_site_fract_z
 _atom_site_occupancy
  Au  Au0  1  0.19235814  0.19340210  0.43647706  1
  Au  Au1  1  0.80764467  0.80659467  0.93647555  1
  Au  Au2  1  0.80764653  0.80659960  0.56352362  1
  Au  Au3  1  0.19235740  0.19340518  0.06352331  1
  C  C4  1  0.85013905  0.77687332  0.25000442  1
  C  C5  1  0.14987286  0.22314357  0.74999673  1
  O  O6  1  0.24990780  0.33443742  0.86319316  1
  O  O7  1  0.75009708  0.66557457  0.36317927  1
  O  O8  1  0.05342526  0.99755786  0.24999472  1
  O  O9  1  -0.05343277  0.00242668  0.75000500  1
  O  O10  1  0.24989711  0.33442496  0.63681941  1
  O  O11  1  0.75008687  0.66556007  0.13680774  1
