# generated using pymatgen
data_B8H2O13
_symmetry_space_group_name_H-M   'P 1'
_cell_length_a   8.75296371
_cell_length_b   6.53731421
_cell_length_c   17.74816031
_cell_angle_alpha   93.94550704
_cell_angle_beta   90.00000098
_cell_angle_gamma   90.00000047
_symmetry_Int_Tables_number   1
_chemical_formula_structural   B8H2O13
_chemical_formula_sum   'B32 H8 O52'
_cell_volume   1013.15829801
_cell_formula_units_Z   4
loop_
 _symmetry_equiv_pos_site_id
 _symmetry_equiv_pos_as_xyz
  1  'x, y, z'
loop_
 _atom_site_type_symbol
 _atom_site_label
 _atom_site_symmetry_multiplicity
 _atom_site_fract_x
 _atom_site_fract_y
 _atom_site_fract_z
 _atom_site_occupancy
  B  B0  1  0.79462482  0.04111501  0.23165566  1
  B  B1  1  0.65226791  0.98650391  0.59704721  1
  B  B2  1  0.05087505  0.96884061  0.19077588  1
  B  B3  1  0.73599875  0.25608621  0.49267418  1
  B  B4  1  0.70537515  0.04111494  0.73165565  1
  B  B5  1  0.26400127  0.74391383  0.50732583  1
  B  B6  1  0.15226793  0.01349609  0.90295278  1
  B  B7  1  0.34773207  0.01349610  0.40295278  1
  B  B8  1  0.75870761  0.55005774  0.77204484  1
  B  B9  1  0.20796829  0.45130516  0.59181219  1
  B  B10  1  0.25870762  0.44994218  0.72795514  1
  B  B11  1  0.70796830  0.54869484  0.90818781  1
  B  B12  1  0.79203173  0.54869488  0.40818782  1
  B  B13  1  0.29852429  0.10551153  0.02231480  1
  B  B14  1  0.55087505  0.03115941  0.30922412  1
  B  B15  1  0.20147571  0.10551153  0.52231480  1
  B  B16  1  0.20537515  0.95888498  0.76834434  1
  B  B17  1  0.84773206  0.98650394  0.09704722  1
  B  B18  1  0.23599874  0.74391383  0.00732583  1
  B  B19  1  0.24129240  0.44994219  0.22795515  1
  B  B20  1  0.49874801  0.55224947  0.19663607  1
  B  B21  1  0.76400126  0.25608618  -0.00732584  1
  B  B22  1  0.74129240  0.55005781  0.27204486  1
  B  B23  1  -0.00125199  0.44775054  0.30336394  1
  B  B24  1  0.00125201  0.55224944  0.69663606  1
  B  B25  1  0.29203172  0.45130516  0.09181219  1
  B  B26  1  0.79852429  0.89448851  0.47768520  1
  B  B27  1  0.50125200  0.44775050  0.80336393  1
  B  B28  1  0.29462482  0.95888501  0.26834435  1
  B  B29  1  0.94912492  0.03115935  0.80922413  1
  B  B30  1  0.70147572  0.89448849  0.97768519  1
  B  B31  1  0.44912491  0.96884058  0.69077587  1
  H  H32  1  0.04932191  0.72611869  0.60309893  1
  H  H33  1  0.07341730  0.67804563  0.92554931  1
  H  H34  1  0.42658271  0.67804564  0.42554930  1
  H  H35  1  0.54932191  0.27388132  0.89690107  1
  H  H36  1  0.45067814  0.72611866  0.10309893  1
  H  H37  1  0.92658270  0.32195437  0.07445070  1
  H  H38  1  -0.04932185  0.27388138  0.39690109  1
  H  H39  1  0.57341731  0.32195441  0.57445071  1
  O  O40  1  0.85027565  0.57659855  0.70975923  1
  O  O41  1  0.79840752  0.06865598  0.79397774  1
  O  O42  1  0.78945985  0.85262479  0.03783118  1
  O  O43  1  0.60371539  0.52156079  0.75404232  1
  O  O44  1  0.75607971  0.02628411  0.65917347  1
  O  O45  1  0.74392026  0.02628417  0.15917347  1
  O  O46  1  0.55858896  0.41082025  0.87676701  1
  O  O47  1  0.27279401  0.55611292  0.53198039  1
  O  O48  1  0.95025326  0.03152696  0.24848515  1
  O  O49  1  0.49713977  0.94600866  0.61729489  1
  O  O50  1  0.28945986  0.14737524  0.46216882  1
  O  O51  1  0.68905141  0.55366291  0.34353338  1
  O  O52  1  0.83129617  0.10209016  0.46418126  1
  O  O53  1  0.77279401  0.44388710  0.96801961  1
  O  O54  1  0.00286019  0.94600868  0.11729490  1
  O  O55  1  0.20159245  0.93134396  0.20602226  1
  O  O56  1  0.66870385  0.10209013  0.96418123  1
  O  O57  1  0.29840751  0.93134395  0.70602225  1
  O  O58  1  0.18905141  0.44633711  0.15646663  1
  O  O59  1  0.14972436  0.42340139  0.29024076  1
  O  O60  1  0.21054014  0.14737523  0.96216882  1
  O  O61  1  0.24392026  -0.02628414  0.34082653  1
  O  O62  1  0.64972436  0.57659862  0.20975925  1
  O  O63  1  0.64457368  0.74594787  0.92809804  1
  O  O64  1  0.39628463  0.47843913  0.24595768  1
  O  O65  1  0.81094861  0.55366285  0.84353336  1
  O  O66  1  0.35700298  0.78633191  0.44471705  1
  O  O67  1  0.35542635  0.25405214  0.07190195  1
  O  O68  1  0.10371538  0.47843911  0.74595766  1
  O  O69  1  0.85542636  0.74594791  0.42809806  1
  O  O70  1  0.45025326  0.96847304  0.25151486  1
  O  O71  1  0.14299703  0.78633190  0.94471705  1
  O  O72  1  0.16870384  0.89790988  0.53581875  1
  O  O73  1  0.94141106  0.41082030  0.37676702  1
  O  O74  1  0.04974670  0.96847298  0.75151485  1
  O  O75  1  0.50286019  0.05399137  0.38270510  1
  O  O76  1  0.05858897  0.58917974  0.62323299  1
  O  O77  1  0.64299702  0.21366812  0.55528295  1
  O  O78  1  0.71054010  0.85262479  0.53783117  1
  O  O79  1  0.22720600  0.55611292  0.03198039  1
  O  O80  1  0.14457365  0.25405214  0.57190195  1
  O  O81  1  0.31094861  0.44633712  0.65646663  1
  O  O82  1  0.72720602  0.44388712  0.46801962  1
  O  O83  1  0.54974671  0.03152689  0.74848514  1
  O  O84  1  0.85700297  0.21366810  0.05528295  1
  O  O85  1  -0.00286020  0.05399134  0.88270510  1
  O  O86  1  0.44141105  0.58917973  0.12323300  1
  O  O87  1  0.33129617  0.89790989  0.03581875  1
  O  O88  1  0.35027565  0.42340137  0.79024076  1
  O  O89  1  0.70159245  0.06865606  0.29397774  1
  O  O90  1  0.89628463  0.52156085  0.25404234  1
  O  O91  1  0.25607972  -0.02628414  0.84082652  1
