# generated using pymatgen
data_Ba2As3ClO6
_symmetry_space_group_name_H-M   'P 1'
_cell_length_a   5.56120374
_cell_length_b   8.47569628
_cell_length_c   20.70294537
_cell_angle_alpha   89.99999985
_cell_angle_beta   89.99999832
_cell_angle_gamma   90.00000017
_symmetry_Int_Tables_number   1
_chemical_formula_structural   Ba2As3ClO6
_chemical_formula_sum   'Ba8 As12 Cl4 O24'
_cell_volume   975.83485896
_cell_formula_units_Z   4
loop_
 _symmetry_equiv_pos_site_id
 _symmetry_equiv_pos_as_xyz
  1  'x, y, z'
loop_
 _atom_site_type_symbol
 _atom_site_label
 _atom_site_symmetry_multiplicity
 _atom_site_fract_x
 _atom_site_fract_y
 _atom_site_fract_z
 _atom_site_occupancy
  Ba  Ba0  1  0.24999996  0.18935982  0.65311189  1
  Ba  Ba1  1  0.74999999  0.61925903  0.05842426  1
  Ba  Ba2  1  0.25000001  0.38074097  0.94157574  1
  Ba  Ba3  1  0.75000004  0.81064017  0.34688811  1
  Ba  Ba4  1  0.25000006  0.31064017  0.15311189  1
  Ba  Ba5  1  0.74999995  0.68935983  0.84688811  1
  Ba  Ba6  1  0.25000000  0.11925905  0.44157573  1
  Ba  Ba7  1  0.75000000  0.88074095  0.55842427  1
  As  As8  1  0.75000004  0.96104996  0.17682386  1
  As  As9  1  0.25000002  0.68606567  0.45311343  1
  As  As10  1  0.75000003  0.23448038  0.83343951  1
  As  As11  1  0.25000000  0.46104999  0.32317611  1
  As  As12  1  0.24999996  0.76551963  0.16656050  1
  As  As13  1  0.24999996  0.81393433  0.95311343  1
  As  As14  1  0.74999999  0.53895001  0.67682389  1
  As  As15  1  0.74999998  0.31393433  0.54688657  1
  As  As16  1  0.75000003  0.26551959  0.33343948  1
  As  As17  1  0.24999997  0.03895005  0.82317614  1
  As  As18  1  0.75000004  0.18606567  0.04688657  1
  As  As19  1  0.24999998  0.73448040  0.66656052  1
  Cl  Cl20  1  0.74999998  0.93724832  0.72029376  1
  Cl  Cl21  1  0.75000000  0.56275170  0.22029375  1
  Cl  Cl22  1  0.24999999  0.43724829  0.77970624  1
  Cl  Cl23  1  0.25000002  0.06275168  0.27970624  1
  O  O24  1  0.51187166  0.17766455  0.54836890  1
  O  O25  1  0.01187167  0.67766453  0.95163108  1
  O  O26  1  0.25000004  0.61230175  0.11128987  1
  O  O27  1  0.00507277  0.11875597  0.87320810  1
  O  O28  1  0.75000000  0.34340051  0.64303277  1
  O  O29  1  0.25000000  0.65659950  0.35696724  1
  O  O30  1  0.25000001  0.84340051  0.85696724  1
  O  O31  1  0.01187174  0.82233547  0.45163110  1
  O  O32  1  0.50507276  0.88124403  0.12679193  1
  O  O33  1  0.24999999  0.88769822  0.61128987  1
  O  O34  1  0.98812834  0.32233547  0.04836892  1
  O  O35  1  0.74999999  0.15659949  0.14303276  1
  O  O36  1  0.48812827  0.67766453  0.95163110  1
  O  O37  1  0.99492722  0.88124403  0.12679189  1
  O  O38  1  0.49492724  0.38124403  0.37320804  1
  O  O39  1  0.75000002  0.11230178  0.38871013  1
  O  O40  1  0.99492723  0.61875597  0.62679195  1
  O  O41  1  0.98812827  0.17766452  0.54836890  1
  O  O42  1  0.48812834  0.82233545  0.45163110  1
  O  O43  1  0.51187173  0.32233547  0.04836890  1
  O  O44  1  0.00507277  0.38124404  0.37320806  1
  O  O45  1  0.49492724  0.11875597  0.87320807  1
  O  O46  1  0.74999996  0.38769824  0.88871013  1
  O  O47  1  0.50507276  0.61875597  0.62679196  1
