# generated using pymatgen
data_Ba5As3ClO9
_symmetry_space_group_name_H-M   'P 1'
_cell_length_a   11.00903397
_cell_length_b   11.00903448
_cell_length_c   7.43085079
_cell_angle_alpha   89.99999839
_cell_angle_beta   90.00000426
_cell_angle_gamma   120.00011101
_symmetry_Int_Tables_number   1
_chemical_formula_structural   Ba5As3ClO9
_chemical_formula_sum   'Ba10 As6 Cl2 O18'
_cell_volume   779.95066092
_cell_formula_units_Z   2
loop_
 _symmetry_equiv_pos_site_id
 _symmetry_equiv_pos_as_xyz
  1  'x, y, z'
loop_
 _atom_site_type_symbol
 _atom_site_label
 _atom_site_symmetry_multiplicity
 _atom_site_fract_x
 _atom_site_fract_y
 _atom_site_fract_z
 _atom_site_occupancy
  Ba  Ba0  1  0.33333342  0.66666662  0.99383871  1
  Ba  Ba1  1  0.66666678  0.33333329  0.49383868  1
  Ba  Ba2  1  0.66666658  0.33333338  0.00616129  1
  Ba  Ba3  1  0.33333322  0.66666671  0.50616132  1
  Ba  Ba4  1  0.26430673  0.02933897  0.25000004  1
  Ba  Ba5  1  0.23496743  0.26430680  0.74999999  1
  Ba  Ba6  1  0.02933943  0.76503245  0.75000004  1
  Ba  Ba7  1  0.97066057  0.23496755  0.24999996  1
  Ba  Ba8  1  0.76503257  0.73569320  0.25000001  1
  Ba  Ba9  1  0.73569327  0.97066103  0.74999996  1
  As  As10  1  0.41622906  0.39456553  0.25000016  1
  As  As11  1  0.02166307  0.41622879  0.75000019  1
  As  As12  1  0.39456602  0.97833693  0.75000003  1
  As  As13  1  0.60543398  0.02166307  0.24999997  1
  As  As14  1  0.97833693  0.58377121  0.24999981  1
  As  As15  1  0.58377094  0.60543447  0.74999984  1
  Cl  Cl16  1  0.00000000  -0.00000000  -0.00000000  1
  Cl  Cl17  1  0.00000000  0.00000000  0.50000000  1
  O  O18  1  0.60282768  0.46279662  0.25000015  1
  O  O19  1  0.14003080  0.60282744  0.75000014  1
  O  O20  1  0.46279654  0.85996918  0.75000002  1
  O  O21  1  0.53720346  0.14003082  0.24999998  1
  O  O22  1  0.85996920  0.39717256  0.24999986  1
  O  O23  1  0.39717232  0.53720338  0.74999985  1
  O  O24  1  0.37167043  0.27789065  0.06192642  1
  O  O25  1  0.09377924  0.37167026  0.56192653  1
  O  O26  1  0.27789098  0.90622066  0.56192645  1
  O  O27  1  0.72210899  0.09377924  0.06192645  1
  O  O28  1  0.90622056  0.62832961  0.06192625  1
  O  O29  1  0.62832959  0.72210941  0.56192627  1
  O  O30  1  0.62832957  0.72210935  0.93807358  1
  O  O31  1  0.90622077  0.62832974  0.43807347  1
  O  O32  1  0.72210902  0.09377934  0.43807355  1
  O  O33  1  0.27789101  0.90622076  0.93807355  1
  O  O34  1  0.09377944  0.37167038  0.93807374  1
  O  O35  1  0.37167041  0.27789059  0.43807374  1
