# generated using pymatgen
data_BaAgAsS3
_symmetry_space_group_name_H-M   'P 1'
_cell_length_a   12.73588169
_cell_length_b   6.35394942
_cell_length_c   7.97864535
_cell_angle_alpha   86.18591853
_cell_angle_beta   90.00008416
_cell_angle_gamma   89.99997690
_symmetry_Int_Tables_number   1
_chemical_formula_structural   BaAgAsS3
_chemical_formula_sum   'Ba4 Ag4 As4 S12'
_cell_volume   644.22706548
_cell_formula_units_Z   4
loop_
 _symmetry_equiv_pos_site_id
 _symmetry_equiv_pos_as_xyz
  1  'x, y, z'
loop_
 _atom_site_type_symbol
 _atom_site_label
 _atom_site_symmetry_multiplicity
 _atom_site_fract_x
 _atom_site_fract_y
 _atom_site_fract_z
 _atom_site_occupancy
  Ba  Ba0  1  0.57357067  0.74807694  0.68530388  1
  Ba  Ba1  1  0.07357077  0.25192300  0.81469621  1
  Ba  Ba2  1  0.42642936  0.25192320  0.31469613  1
  Ba  Ba3  1  0.92642920  0.74807707  0.18530378  1
  Ag  Ag4  1  0.77371171  0.22525285  0.37032968  1
  Ag  Ag5  1  0.72628835  0.22525279  0.87032955  1
  Ag  Ag6  1  0.27371163  0.77474720  0.12967042  1
  Ag  Ag7  1  0.22628832  0.77474712  0.62967029  1
  As  As8  1  0.89561683  0.74967361  0.67140900  1
  As  As9  1  0.10438314  0.25032634  0.32859105  1
  As  As10  1  0.60438354  0.74967352  0.17140937  1
  As  As11  1  0.39561647  0.25032644  0.82859055  1
  S  S12  1  0.45397868  0.75401919  0.32997944  1
  S  S13  1  0.95397885  0.24598108  0.17002073  1
  S  S14  1  0.54602127  0.24598088  0.67002064  1
  S  S15  1  0.04602117  0.75401896  0.82997931  1
  S  S16  1  0.14797462  0.89728415  0.34944999  1
  S  S17  1  0.64797476  0.10271568  0.15055005  1
  S  S18  1  0.85202538  0.10271574  0.65055000  1
  S  S19  1  0.78295083  0.62205260  0.87473532  1
  S  S20  1  0.71704884  0.62205277  0.37473504  1
  S  S21  1  0.21704921  0.37794736  0.12526464  1
  S  S22  1  0.28295116  0.37794720  0.62526497  1
  S  S23  1  0.35202524  0.89728432  0.84944995  1
