# generated using pymatgen
data_BaAl2Cl6O
_symmetry_space_group_name_H-M   'P 1'
_cell_length_a   12.56398103
_cell_length_b   9.86611847
_cell_length_c   13.34273359
_cell_angle_alpha   50.52339924
_cell_angle_beta   89.99998681
_cell_angle_gamma   89.99999838
_symmetry_Int_Tables_number   1
_chemical_formula_structural   BaAl2Cl6O
_chemical_formula_sum   'Ba4 Al8 Cl24 O4'
_cell_volume   1276.64636991
_cell_formula_units_Z   4
loop_
 _symmetry_equiv_pos_site_id
 _symmetry_equiv_pos_as_xyz
  1  'x, y, z'
loop_
 _atom_site_type_symbol
 _atom_site_label
 _atom_site_symmetry_multiplicity
 _atom_site_fract_x
 _atom_site_fract_y
 _atom_site_fract_z
 _atom_site_occupancy
  Ba  Ba0  1  0.97605442  0.22243441  0.78365671  1
  Ba  Ba1  1  0.52394562  0.22243442  0.28365666  1
  Ba  Ba2  1  0.02394557  0.77756559  0.21634329  1
  Ba  Ba3  1  0.47605438  0.77756552  0.71634326  1
  Al  Al4  1  0.10410043  0.65505766  0.71352125  1
  Al  Al5  1  0.39589946  0.65505765  0.21352125  1
  Al  Al6  1  -0.00150515  0.04909780  0.57240797  1
  Al  Al7  1  0.89589954  0.34494238  0.28647876  1
  Al  Al8  1  0.00150515  0.95090227  0.42759206  1
  Al  Al9  1  0.50150519  0.04909775  0.07240797  1
  Al  Al10  1  0.60410051  0.34494235  0.78647874  1
  Al  Al11  1  0.49849486  0.95090219  0.92759206  1
  Cl  Cl12  1  0.15736320  0.54139636  0.62717842  1
  Cl  Cl13  1  0.27491709  0.66991606  0.31946304  1
  Cl  Cl14  1  0.14697795  0.00128581  0.97033325  1
  Cl  Cl15  1  0.77491730  0.33008396  0.18053688  1
  Cl  Cl16  1  0.64697800  0.99871424  0.52966676  1
  Cl  Cl17  1  0.02447696  0.50949598  0.15672250  1
  Cl  Cl18  1  0.97552301  0.49050402  0.84327751  1
  Cl  Cl19  1  0.22508273  0.66991603  0.81946310  1
  Cl  Cl20  1  0.47552312  0.50949592  0.65672248  1
  Cl  Cl21  1  0.89329896  0.76933700  0.44424151  1
  Cl  Cl22  1  0.10866322  0.03930726  0.27286596  1
  Cl  Cl23  1  0.39329899  0.23066295  0.05575858  1
  Cl  Cl24  1  0.60866321  0.96069269  0.22713409  1
  Cl  Cl25  1  0.85302202  0.99871418  0.02966677  1
  Cl  Cl26  1  0.39133683  0.03930723  0.77286593  1
  Cl  Cl27  1  0.10670105  0.23066304  0.55575851  1
  Cl  Cl28  1  0.34263685  0.54139631  0.12717840  1
  Cl  Cl29  1  0.35302206  0.00128575  0.47033324  1
  Cl  Cl30  1  0.89133683  0.96069281  0.72713406  1
  Cl  Cl31  1  0.60670104  0.76933697  0.94424144  1
  Cl  Cl32  1  0.52447681  0.49050407  0.34327760  1
  Cl  Cl33  1  0.84263678  0.45860376  0.37282153  1
  Cl  Cl34  1  0.72508282  0.33008393  0.68053689  1
  Cl  Cl35  1  0.65736318  0.45860366  0.87282159  1
  O  O36  1  0.94682875  0.13120828  0.41544274  1
  O  O37  1  0.55317129  0.13120823  0.91544275  1
  O  O38  1  0.44682874  0.86879173  0.08455725  1
  O  O39  1  0.05317124  0.86879176  0.58455724  1
