# generated using pymatgen
data_BBrO
_symmetry_space_group_name_H-M   'P 1'
_cell_length_a   4.30597062
_cell_length_b   4.93837450
_cell_length_c   8.45445800
_cell_angle_alpha   90.00000853
_cell_angle_beta   90.00000463
_cell_angle_gamma   89.99999714
_symmetry_Int_Tables_number   1
_chemical_formula_structural   BBrO
_chemical_formula_sum   'B4 Br4 O4'
_cell_volume   179.77978416
_cell_formula_units_Z   4
loop_
 _symmetry_equiv_pos_site_id
 _symmetry_equiv_pos_as_xyz
  1  'x, y, z'
loop_
 _atom_site_type_symbol
 _atom_site_label
 _atom_site_symmetry_multiplicity
 _atom_site_fract_x
 _atom_site_fract_y
 _atom_site_fract_z
 _atom_site_occupancy
  B  B0  1  0.00609597  0.09995836  0.07374845  1
  B  B1  1  0.50609595  0.90004163  0.92625151  1
  B  B2  1  0.00609589  0.59995833  0.92625151  1
  B  B3  1  0.50609596  0.40004165  0.07374851  1
  Br  Br4  1  0.05689625  0.00459125  0.29630742  1
  Br  Br5  1  0.55689613  -0.00459125  0.70369256  1
  Br  Br6  1  0.05689609  0.50459133  0.70369255  1
  Br  Br7  1  0.55689623  0.49540865  0.29630752  1
  O  O8  1  0.16600692  0.37027170  0.02687549  1
  O  O9  1  0.66600697  0.62972832  0.97312450  1
  O  O10  1  0.16600682  0.87027166  0.97312449  1
  O  O11  1  0.66600682  0.12972837  0.02687549  1
