# generated using pymatgen
data_BH6IO4
_symmetry_space_group_name_H-M   'P 1'
_cell_length_a   4.32687816
_cell_length_b   8.28492201
_cell_length_c   9.15943861
_cell_angle_alpha   120.14386283
_cell_angle_beta   109.38305131
_cell_angle_gamma   77.78696354
_symmetry_Int_Tables_number   1
_chemical_formula_structural   BH6IO4
_chemical_formula_sum   'B2 H12 I2 O8'
_cell_volume   267.44359821
_cell_formula_units_Z   2
loop_
 _symmetry_equiv_pos_site_id
 _symmetry_equiv_pos_as_xyz
  1  'x, y, z'
loop_
 _atom_site_type_symbol
 _atom_site_label
 _atom_site_symmetry_multiplicity
 _atom_site_fract_x
 _atom_site_fract_y
 _atom_site_fract_z
 _atom_site_occupancy
  B  B0  1  0.25001273  -0.00003192  -0.00006907  1
  B  B1  1  0.74998761  0.00003260  0.00006905  1
  H  H2  1  0.50488055  0.27888547  0.16410143  1
  H  H3  1  0.15924558  0.88518589  0.16410767  1
  H  H4  1  0.49511925  0.72111416  0.83589835  1
  H  H5  1  0.84075497  0.11481394  0.83589258  1
  H  H6  1  0.90715987  0.54656299  0.65790503  1
  H  H7  1  0.25076497  0.11132821  0.65790171  1
  H  H8  1  0.09284012  0.45343704  0.34209497  1
  H  H9  1  0.74923505  0.88867182  0.34209829  1
  H  H10  1  0.79576184  0.67166947  0.56559368  1
  H  H11  1  0.26984812  0.89392422  0.56558454  1
  H  H12  1  0.20423814  0.32833053  0.43440630  1
  H  H13  1  0.73015192  0.10607579  0.43441548  1
  I  I14  1  0.37841303  0.62843297  0.25684221  1
  I  I15  1  0.62158701  0.37156699  0.74315779  1
  O  O16  1  0.50531751  0.13913823  0.08739266  1
  O  O17  1  0.08208636  0.94829292  0.08742280  1
  O  O18  1  0.49468397  0.86086178  0.91260743  1
  O  O19  1  0.91791130  0.05170704  0.91257710  1
  O  O20  1  -0.06987950  0.67083448  0.67535972  1
  O  O21  1  0.24525200  0.00450598  0.67535307  1
  O  O22  1  0.06987950  0.32916547  0.32464031  1
  O  O23  1  0.75474807  -0.00450607  0.32464690  1
