# generated using pymatgen
data_BiBCl6
_symmetry_space_group_name_H-M   'P 1'
_cell_length_a   11.40382750
_cell_length_b   8.14956581
_cell_length_c   11.32344730
_cell_angle_alpha   76.81706318
_cell_angle_beta   90.00001155
_cell_angle_gamma   90.00000248
_symmetry_Int_Tables_number   1
_chemical_formula_structural   BiBCl6
_chemical_formula_sum   'Bi4 B4 Cl24'
_cell_volume   1024.62569713
_cell_formula_units_Z   4
loop_
 _symmetry_equiv_pos_site_id
 _symmetry_equiv_pos_as_xyz
  1  'x, y, z'
loop_
 _atom_site_type_symbol
 _atom_site_label
 _atom_site_symmetry_multiplicity
 _atom_site_fract_x
 _atom_site_fract_y
 _atom_site_fract_z
 _atom_site_occupancy
  Bi  Bi0  1  0.96578106  0.20380093  0.34998145  1
  Bi  Bi1  1  0.53421896  0.20380099  0.84998150  1
  Bi  Bi2  1  0.03421895  0.79619908  0.65001856  1
  Bi  Bi3  1  0.46578102  0.79619907  0.15001850  1
  B  B4  1  0.77854813  0.49120618  0.71962796  1
  B  B5  1  0.72145178  0.49120631  0.21962805  1
  B  B6  1  0.27854821  0.50879384  0.78037203  1
  B  B7  1  0.22145189  0.50879373  0.28037186  1
  Cl  Cl8  1  0.44368883  -0.02596424  0.29611913  1
  Cl  Cl9  1  0.87763561  0.52943640  0.17644850  1
  Cl  Cl10  1  0.66890700  0.65680635  0.29961965  1
  Cl  Cl11  1  0.12885637  0.49945150  0.41598128  1
  Cl  Cl12  1  0.87114370  0.50054837  0.58401872  1
  Cl  Cl13  1  0.05631107  -0.02596415  0.79611910  1
  Cl  Cl14  1  0.37114379  0.49945158  0.91598123  1
  Cl  Cl15  1  0.12236451  0.47056368  0.82355169  1
  Cl  Cl16  1  0.16890704  0.34319350  0.20038040  1
  Cl  Cl17  1  0.37763566  0.47056362  0.32355150  1
  Cl  Cl18  1  0.62236431  0.52943626  0.67644826  1
  Cl  Cl19  1  0.62885634  0.50054844  0.08401880  1
  Cl  Cl20  1  0.64567450  0.98334869  0.03382827  1
  Cl  Cl21  1  0.70880861  0.28041278  0.32670547  1
  Cl  Cl22  1  0.20880857  0.71958704  0.17329455  1
  Cl  Cl23  1  0.35432547  0.01665142  0.96617175  1
  Cl  Cl24  1  0.29119142  0.71958719  0.67329469  1
  Cl  Cl25  1  0.94368888  0.02596416  0.20388087  1
  Cl  Cl26  1  0.33109296  0.34319371  0.70038039  1
  Cl  Cl27  1  0.79119139  0.28041290  0.82670540  1
  Cl  Cl28  1  0.14567450  0.01665136  0.46617181  1
  Cl  Cl29  1  0.83109287  0.65680648  0.79961954  1
  Cl  Cl30  1  0.55631111  0.02596428  0.70388085  1
  Cl  Cl31  1  0.85432548  0.98334856  0.53382822  1
