# generated using pymatgen
data_BiPO5
_symmetry_space_group_name_H-M   'P 1'
_cell_length_a   5.01908260
_cell_length_b   8.88577728
_cell_length_c   9.29631109
_cell_angle_alpha   90.00002469
_cell_angle_beta   90.00013141
_cell_angle_gamma   89.99965527
_symmetry_Int_Tables_number   1
_chemical_formula_structural   BiPO5
_chemical_formula_sum   'Bi4 P4 O20'
_cell_volume   414.60106657
_cell_formula_units_Z   4
loop_
 _symmetry_equiv_pos_site_id
 _symmetry_equiv_pos_as_xyz
  1  'x, y, z'
loop_
 _atom_site_type_symbol
 _atom_site_label
 _atom_site_symmetry_multiplicity
 _atom_site_fract_x
 _atom_site_fract_y
 _atom_site_fract_z
 _atom_site_occupancy
  Bi  Bi0  1  0.60265993  0.33877678  0.61812896  1
  Bi  Bi1  1  0.10266406  0.16121064  0.38187070  1
  Bi  Bi2  1  0.39734007  0.83878888  0.88186890  1
  Bi  Bi3  1  0.89733520  0.66122225  0.11812689  1
  P  P4  1  0.60291377  0.99123757  0.19337486  1
  P  P5  1  0.10290949  0.50876010  0.80662574  1
  P  P6  1  0.39709159  0.49123875  0.30662493  1
  P  P7  1  0.89708549  0.00876166  0.69337462  1
  O  O8  1  0.07712869  0.49641768  0.97268987  1
  O  O9  1  0.57712516  0.00357680  0.02730157  1
  O  O10  1  0.92287292  -0.00357651  0.52729845  1
  O  O11  1  0.42287217  0.50358281  0.47268793  1
  O  O12  1  0.22467459  0.65810700  0.75041749  1
  O  O13  1  0.72468332  0.84187755  0.24958446  1
  O  O14  1  0.77531747  0.15812431  0.74958375  1
  O  O15  1  0.27532473  0.34189510  0.25041646  1
  O  O16  1  0.93239848  0.34575249  0.48264080  1
  O  O17  1  0.43239983  0.15424834  0.51735788  1
  O  O18  1  0.06759611  0.84575252  0.01736118  1
  O  O19  1  0.56760510  0.65424854  0.98264397  1
  O  O20  1  0.22485027  0.63070781  0.26436955  1
  O  O21  1  0.72483057  0.86928583  0.73563479  1
  O  O22  1  0.77516687  0.13071426  0.23563290  1
  O  O23  1  0.27515263  0.36929270  0.76436831  1
  O  O24  1  0.68170635  0.49698082  0.23818513  1
  O  O25  1  0.18171159  0.00301860  0.76181961  1
  O  O26  1  0.31828918  0.99697924  0.26182288  1
  O  O27  1  0.81829437  0.50301750  0.73818743  1
