# generated using pymatgen
data_BP2H12N3O8
_symmetry_space_group_name_H-M   'P 1'
_cell_length_a   9.21384605
_cell_length_b   9.10875157
_cell_length_c   13.71142959
_cell_angle_alpha   53.33624443
_cell_angle_beta   89.99999819
_cell_angle_gamma   89.99999894
_symmetry_Int_Tables_number   1
_chemical_formula_structural   BP2H12N3O8
_chemical_formula_sum   'B4 P8 H48 N12 O32'
_cell_volume   923.08149974
_cell_formula_units_Z   4
loop_
 _symmetry_equiv_pos_site_id
 _symmetry_equiv_pos_as_xyz
  1  'x, y, z'
loop_
 _atom_site_type_symbol
 _atom_site_label
 _atom_site_symmetry_multiplicity
 _atom_site_fract_x
 _atom_site_fract_y
 _atom_site_fract_z
 _atom_site_occupancy
  B  B0  1  0.43942335  0.98270046  0.65324165  1
  B  B1  1  0.56057665  0.01729954  0.34675835  1
  B  B2  1  0.93942336  0.01729954  0.84675836  1
  B  B3  1  0.06057664  0.98270046  0.15324164  1
  P  P4  1  0.66052659  0.90341147  0.82815309  1
  P  P5  1  0.33947340  0.09658854  0.17184691  1
  P  P6  1  0.16052665  0.09658856  0.67184698  1
  P  P7  1  0.83947335  0.90341143  0.32815302  1
  P  P8  1  0.45475552  0.75072611  0.58159275  1
  P  P9  1  0.54524446  0.24927391  0.41840723  1
  P  P10  1  0.95475534  0.24927367  0.91840738  1
  P  P11  1  0.04524467  0.75072635  0.08159261  1
  H  H12  1  0.85201433  0.85010041  0.56782104  1
  H  H13  1  0.14798567  0.14989959  0.43217896  1
  H  H14  1  0.35201433  0.14989959  0.93217897  1
  H  H15  1  0.64798567  0.85010041  0.06782103  1
  H  H16  1  -0.00237667  0.66651844  0.54576681  1
  H  H17  1  1.00237667  0.33348155  0.45423319  1
  H  H18  1  0.49762333  0.33348155  0.95423319  1
  H  H19  1  0.50237667  0.66651845  0.04576681  1
  H  H20  1  0.24138466  0.46780930  0.99448497  1
  H  H21  1  0.75861534  0.53219070  0.00551502  1
  H  H22  1  0.74138466  0.53219071  0.50551501  1
  H  H23  1  0.25861534  0.46780929  0.49448499  1
  H  H24  1  0.80819835  0.78721924  0.71298416  1
  H  H25  1  0.19180165  0.21278076  0.28701584  1
  H  H26  1  0.30819836  0.21278073  0.78701586  1
  H  H27  1  0.69180164  0.78721927  0.21298414  1
  H  H28  1  0.03365975  0.53668571  0.70072142  1
  H  H29  1  0.96634025  0.46331429  0.29927858  1
  H  H30  1  0.53365975  0.46331430  0.79927857  1
  H  H31  1  0.46634025  0.53668570  0.20072143  1
  H  H32  1  0.76625936  0.99681185  0.58202110  1
  H  H33  1  0.23374064  0.00318815  0.41797890  1
  H  H34  1  0.26625935  0.00318813  0.91797892  1
  H  H35  1  0.73374065  0.99681187  0.08202108  1
  H  H36  1  0.09351722  0.45897226  0.62266261  1
  H  H37  1  0.90648278  0.54102774  0.37733739  1
  H  H38  1  0.59351721  0.54102771  0.87733740  1
  H  H39  1  0.40648279  0.45897229  0.12266260  1
  H  H40  1  0.27045478  0.65895743  0.84556922  1
  H  H41  1  0.72954522  0.34104257  0.15443078  1
  H  H42  1  0.77045478  0.34104257  0.65443077  1
  H  H43  1  0.22954522  0.65895742  0.34556923  1
  H  H44  1  0.16741121  0.65329048  0.59131789  1
  H  H45  1  0.83258879  0.34670952  0.40868211  1
  H  H46  1  0.66741123  0.34670950  0.90868212  1
  H  H47  1  0.33258877  0.65329050  0.09131788  1
  H  H48  1  0.11011190  0.54293273  0.88663272  1
  H  H49  1  0.88988810  0.45706727  0.11336728  1
  H  H50  1  0.61011188  0.45706728  0.61336727  1
  H  H51  1  0.38988812  0.54293272  0.38663273  1
  H  H52  1  0.93950275  0.94812336  0.62319773  1
  H  H53  1  0.06049725  0.05187664  0.37680227  1
  H  H54  1  0.43950276  0.05187663  0.87680228  1
  H  H55  1  0.56049724  0.94812337  0.12319772  1
  H  H56  1  0.16384155  0.67393814  0.93542759  1
  H  H57  1  0.83615845  0.32606186  0.06457241  1
  H  H58  1  0.66384155  0.32606189  0.56457241  1
  H  H59  1  0.33615845  0.67393811  0.43542759  1
  N  N60  1  0.19674454  0.58611344  0.91522264  1
  N  N61  1  0.80325546  0.41388656  0.08477735  1
  N  N62  1  0.69674455  0.41388652  0.58477733  1
  N  N63  1  0.30325545  0.58611348  0.41522267  1
  N  N64  1  0.84132198  0.88874641  0.62512368  1
  N  N65  1  0.15867801  0.11125359  0.37487632  1
  N  N66  1  0.34132198  0.11125365  0.87487628  1
  N  N67  1  0.65867802  0.88874636  0.12512372  1
  N  N68  1  0.07004661  0.57741897  0.61488576  1
  N  N69  1  0.92995339  0.42258103  0.38511424  1
  N  N70  1  0.57004660  0.42258109  0.88511424  1
  N  N71  1  0.42995340  0.57741891  0.11488576  1
  O  O72  1  0.46540907  0.80659947  0.67108377  1
  O  O73  1  0.53459093  0.19340053  0.32891623  1
  O  O74  1  0.96540908  0.19340054  0.82891622  1
  O  O75  1  0.03459092  0.80659946  0.17108378  1
  O  O76  1  0.06132794  -0.01491129  0.78962506  1
  O  O77  1  0.93867206  1.01491129  0.21037494  1
  O  O78  1  0.56132794  1.01491129  0.71037493  1
  O  O79  1  0.43867206  -0.01491129  0.28962507  1
  O  O80  1  0.30484228  0.78985188  0.52456322  1
  O  O81  1  0.69515774  0.21014812  0.47543679  1
  O  O82  1  0.80484241  0.21014817  0.97543673  1
  O  O83  1  0.19515758  0.78985183  0.02456327  1
  O  O84  1  0.49694965  0.54885460  0.65686759  1
  O  O85  1  0.50305036  0.45114538  0.34313241  1
  O  O86  1  0.99694969  0.45114554  0.84313235  1
  O  O87  1  0.00305031  0.54885445  0.15686766  1
  O  O88  1  0.29886031  0.96639893  0.71442725  1
  O  O89  1  0.70113969  0.03360107  0.28557275  1
  O  O90  1  0.79886031  0.03360108  0.78557275  1
  O  O91  1  0.20113969  0.96639892  0.21442725  1
  O  O92  1  0.08157897  0.11188485  0.56823079  1
  O  O93  1  0.91842103  0.88811515  0.43176921  1
  O  O94  1  0.58157902  0.88811514  0.93176915  1
  O  O95  1  0.41842098  0.11188486  0.06823085  1
  O  O96  1  0.20407411  0.28317880  0.63928974  1
  O  O97  1  0.79592589  0.71682120  0.36071026  1
  O  O98  1  0.70407414  0.71682116  0.86071025  1
  O  O99  1  0.29592586  0.28317884  0.13928975  1
  O  O100  1  0.92787532  0.86368673  -0.02258760  1
  O  O101  1  0.07212468  0.13631327  1.02258760  1
  O  O102  1  0.42787533  0.13631326  0.52258760  1
  O  O103  1  0.57212467  0.86368674  0.47741240  1
