# generated using pymatgen
data_BP2I9
_symmetry_space_group_name_H-M   'P 1'
_cell_length_a   11.30468734
_cell_length_b   18.43543335
_cell_length_c   21.20332496
_cell_angle_alpha   90.00000142
_cell_angle_beta   89.99999949
_cell_angle_gamma   90.00000032
_symmetry_Int_Tables_number   1
_chemical_formula_structural   BP2I9
_chemical_formula_sum   'B8 P16 I72'
_cell_volume   4418.91731629
_cell_formula_units_Z   8
loop_
 _symmetry_equiv_pos_site_id
 _symmetry_equiv_pos_as_xyz
  1  'x, y, z'
loop_
 _atom_site_type_symbol
 _atom_site_label
 _atom_site_symmetry_multiplicity
 _atom_site_fract_x
 _atom_site_fract_y
 _atom_site_fract_z
 _atom_site_occupancy
  B  B0  1  0.86805964  0.22198369  0.38026246  1
  B  B1  1  0.36805965  0.27801631  0.61973754  1
  B  B2  1  0.13194035  0.72198369  0.11973754  1
  B  B3  1  0.63194036  0.77801631  0.88026246  1
  B  B4  1  0.13194036  0.77801631  0.61973754  1
  B  B5  1  0.63194036  0.72198369  0.38026246  1
  B  B6  1  0.86805964  0.27801631  0.88026246  1
  B  B7  1  0.36805964  0.22198369  0.11973755  1
  P  P8  1  0.80586153  0.99621343  0.13292233  1
  P  P9  1  0.30586152  0.50378657  0.86707766  1
  P  P10  1  0.19413848  0.49621343  0.36707766  1
  P  P11  1  0.69413848  0.00378657  0.63292234  1
  P  P12  1  0.19413847  0.00378657  0.86707766  1
  P  P13  1  0.69413848  0.49621343  0.13292234  1
  P  P14  1  0.80586152  0.50378657  0.63292234  1
  P  P15  1  0.30586152  0.99621343  0.36707766  1
  P  P16  1  0.66932163  0.92333892  0.08608249  1
  P  P17  1  0.16932163  0.57666108  0.91391751  1
  P  P18  1  0.33067837  0.42333893  0.41391752  1
  P  P19  1  0.83067837  0.07666107  0.58608248  1
  P  P20  1  0.33067837  0.07666108  0.91391751  1
  P  P21  1  0.83067837  0.42333892  0.08608248  1
  P  P22  1  0.66932163  0.57666108  0.58608248  1
  P  P23  1  0.16932163  0.92333893  0.41391752  1
  I  I24  1  0.96478063  0.22450424  0.47268793  1
  I  I25  1  0.73784630  0.37382628  0.88208534  1
  I  I26  1  0.76215370  0.62617372  0.38208533  1
  I  I27  1  0.26215371  0.87382628  0.61791466  1
  I  I28  1  0.76215371  0.87382628  0.88208533  1
  I  I29  1  0.26215370  0.62617372  0.11791466  1
  I  I30  1  0.23784630  0.37382628  0.61791467  1
  I  I31  1  0.73784629  0.12617372  0.38208534  1
  I  I32  1  -0.00328684  0.00326080  0.39911565  1
  I  I33  1  0.49671316  0.49673920  0.60088434  1
  I  I34  1  1.00328684  0.50326080  0.10088435  1
  I  I35  1  0.50328684  0.99673919  0.89911565  1
  I  I36  1  1.00328684  0.99673920  0.60088435  1
  I  I37  1  0.50328684  0.50326080  0.39911565  1
  I  I38  1  -0.00328684  0.49673920  0.89911565  1
  I  I39  1  0.49671316  0.00326080  0.10088435  1
  I  I40  1  0.14904078  0.83468328  0.32793479  1
  I  I41  1  0.64904077  0.66531672  0.67206522  1
  I  I42  1  0.85095922  0.33468328  0.17206521  1
  I  I43  1  0.35095922  0.16531671  0.82793478  1
  I  I44  1  0.85095922  0.16531672  0.67206521  1
  I  I45  1  0.35095923  0.33468328  0.32793478  1
  I  I46  1  0.14904078  0.66531672  0.82793478  1
  I  I47  1  0.64904078  0.83468329  0.17206522  1
  I  I48  1  0.23784629  0.12617372  0.11791467  1
  I  I49  1  0.99261895  0.57407168  0.63239630  1
  I  I50  1  0.50738104  0.42592832  0.13239629  1
  I  I51  1  0.00738104  0.07407168  0.86760371  1
  I  I52  1  0.50738104  0.07407168  0.63239629  1
  I  I53  1  0.00738104  0.42592832  0.36760370  1
  I  I54  1  0.49261895  0.57407168  0.86760371  1
  I  I55  1  0.99261896  0.92592832  0.13239629  1
  I  I56  1  0.26367447  0.04548760  0.26106578  1
  I  I57  1  0.76367446  0.45451240  0.73893422  1
  I  I58  1  0.73632553  0.54548760  0.23893422  1
  I  I59  1  0.23632554  0.95451240  0.76106578  1
  I  I60  1  0.73632554  0.95451240  0.73893422  1
  I  I61  1  0.23632554  0.54548760  0.26106578  1
  I  I62  1  0.26367447  0.45451240  0.76106578  1
  I  I63  1  0.76367446  0.04548760  0.23893422  1
  I  I64  1  0.32840469  0.09778920  0.43996322  1
  I  I65  1  0.82840469  0.40221081  0.56003678  1
  I  I66  1  0.67159531  0.59778919  0.06003678  1
  I  I67  1  0.17159530  0.90221080  0.93996322  1
  I  I68  1  0.67159531  0.90221080  0.56003678  1
  I  I69  1  0.17159531  0.59778919  0.43996322  1
  I  I70  1  0.32840469  0.40221081  0.93996322  1
  I  I71  1  0.82840469  0.09778919  0.06003678  1
  I  I72  1  0.49261896  0.92592832  0.36760371  1
  I  I73  1  0.46478063  0.27549575  0.52731208  1
  I  I74  1  0.03521936  0.72450425  0.02731208  1
  I  I75  1  0.53521936  0.77549575  0.97268792  1
  I  I76  1  0.03521937  0.77549576  0.52731207  1
  I  I77  1  0.53521937  0.72450425  0.47268792  1
  I  I78  1  0.96478064  0.27549576  0.97268792  1
  I  I79  1  0.46478063  0.22450425  0.02731208  1
  I  I80  1  -0.01011484  0.21145384  0.29810945  1
  I  I81  1  0.48988517  0.28854615  0.70189055  1
  I  I82  1  1.01011484  0.71145384  0.20189055  1
  I  I83  1  0.51011484  0.78854616  0.79810945  1
  I  I84  1  1.01011485  0.78854616  0.70189055  1
  I  I85  1  0.51011484  0.71145385  0.29810945  1
  I  I86  1  -0.01011485  0.28854616  0.79810945  1
  I  I87  1  0.48988516  0.21145385  0.20189055  1
  I  I88  1  0.75938472  0.32515559  0.37076219  1
  I  I89  1  0.25938472  0.17484441  0.62923782  1
  I  I90  1  0.24061528  0.82515559  0.12923781  1
  I  I91  1  0.74061528  0.67484441  0.87076218  1
  I  I92  1  0.24061528  0.67484441  0.62923781  1
  I  I93  1  0.74061528  0.82515559  0.37076218  1
  I  I94  1  0.75938472  0.17484441  0.87076219  1
  I  I95  1  0.25938471  0.32515559  0.12923782  1
