# generated using pymatgen
data_BPdF5
_symmetry_space_group_name_H-M   'P 1'
_cell_length_a   4.10526553
_cell_length_b   6.67487220
_cell_length_c   6.67447977
_cell_angle_alpha   89.99995517
_cell_angle_beta   89.99997683
_cell_angle_gamma   90.00000009
_symmetry_Int_Tables_number   1
_chemical_formula_structural   BPdF5
_chemical_formula_sum   'B2 Pd2 F10'
_cell_volume   182.89491419
_cell_formula_units_Z   2
loop_
 _symmetry_equiv_pos_site_id
 _symmetry_equiv_pos_as_xyz
  1  'x, y, z'
loop_
 _atom_site_type_symbol
 _atom_site_label
 _atom_site_symmetry_multiplicity
 _atom_site_fract_x
 _atom_site_fract_y
 _atom_site_fract_z
 _atom_site_occupancy
  B  B0  1  -0.00006101  0.74999997  0.25000002  1
  B  B1  1  -0.00007400  0.25000001  0.74999999  1
  Pd  Pd2  1  0.81872288  0.75000001  0.75000011  1
  Pd  Pd3  1  0.18126949  0.24999999  0.24999988  1
  F  F4  1  0.68196522  0.25000000  0.25000002  1
  F  F5  1  0.31803102  0.75000000  0.74999999  1
  F  F6  1  0.79968807  0.41301197  0.80883308  1
  F  F7  1  0.79968578  0.80882995  0.08697954  1
  F  F8  1  0.20035049  0.30884244  0.58695183  1
  F  F9  1  0.20034870  0.91303938  0.30884526  1
  F  F10  1  0.20034855  0.58696059  0.19115444  1
  F  F11  1  0.20035080  0.19115756  0.91304790  1
  F  F12  1  0.79968607  0.69117006  0.41302073  1
  F  F13  1  0.79968795  0.08698807  0.69116721  1
