# generated using pymatgen
data_BTeCl7
_symmetry_space_group_name_H-M   'P 1'
_cell_length_a   12.18656200
_cell_length_b   6.45371819
_cell_length_c   15.10817733
_cell_angle_alpha   73.62294118
_cell_angle_beta   89.99999782
_cell_angle_gamma   89.99998780
_symmetry_Int_Tables_number   1
_chemical_formula_structural   BTeCl7
_chemical_formula_sum   'B4 Te4 Cl28'
_cell_volume   1140.02712673
_cell_formula_units_Z   4
loop_
 _symmetry_equiv_pos_site_id
 _symmetry_equiv_pos_as_xyz
  1  'x, y, z'
loop_
 _atom_site_type_symbol
 _atom_site_label
 _atom_site_symmetry_multiplicity
 _atom_site_fract_x
 _atom_site_fract_y
 _atom_site_fract_z
 _atom_site_occupancy
  B  B0  1  0.04949056  0.63211775  0.27913817  1
  B  B1  1  0.54949051  0.36788228  0.22086186  1
  B  B2  1  0.95050942  0.36788218  0.72086180  1
  B  B3  1  0.45050943  0.63211787  0.77913814  1
  Te  Te4  1  0.74983572  0.90215114  0.61975528  1
  Te  Te5  1  0.75016426  0.90215116  0.11975533  1
  Te  Te6  1  0.25016426  0.09784885  0.38024472  1
  Te  Te7  1  0.24983571  0.09784886  0.88024468  1
  Cl  Cl8  1  0.90511252  0.07880857  0.73997054  1
  Cl  Cl9  1  0.09648831  0.46394037  0.39577545  1
  Cl  Cl10  1  0.85573484  0.09654391  0.49552479  1
  Cl  Cl11  1  0.59648832  0.53605967  0.10422465  1
  Cl  Cl12  1  0.40351168  0.46394034  0.89577535  1
  Cl  Cl13  1  0.86686355  0.77235584  0.02461941  1
  Cl  Cl14  1  0.59488748  0.07880838  0.23997059  1
  Cl  Cl15  1  0.14426515  0.90345614  0.50447519  1
  Cl  Cl16  1  0.36355148  0.80748237  0.37877357  1
  Cl  Cl17  1  0.13313646  0.22764413  0.97538057  1
  Cl  Cl18  1  0.63313645  0.77235590  0.52461942  1
  Cl  Cl19  1  0.90351168  0.53605965  0.60422456  1
  Cl  Cl20  1  0.89659963  0.47549254  0.81136926  1
  Cl  Cl21  1  0.64426514  0.09654383  0.99552483  1
  Cl  Cl22  1  0.10508508  0.37177506  0.71801225  1
  Cl  Cl23  1  0.09488749  0.92119160  0.26002944  1
  Cl  Cl24  1  0.60340044  0.47549246  0.31136931  1
  Cl  Cl25  1  0.10340041  0.52450744  0.18863071  1
  Cl  Cl26  1  0.39491497  0.37177500  0.21801232  1
  Cl  Cl27  1  0.40511252  0.92119139  0.76002943  1
  Cl  Cl28  1  0.36686354  0.22764412  0.47538060  1
  Cl  Cl29  1  0.63644852  0.19251762  0.62122645  1
  Cl  Cl30  1  0.35573485  0.90345613  0.00447519  1
  Cl  Cl31  1  0.13644851  0.80748242  0.87877356  1
  Cl  Cl32  1  0.89491498  0.62822497  0.28198773  1
  Cl  Cl33  1  0.60508505  0.62822499  0.78198773  1
  Cl  Cl34  1  0.39659961  0.52450750  0.68863069  1
  Cl  Cl35  1  0.86355147  0.19251757  0.12122644  1
