# generated using pymatgen
data_Ca5As3BrO12
_symmetry_space_group_name_H-M   'P 1'
_cell_length_a   10.38140334
_cell_length_b   10.38140379
_cell_length_c   6.77101357
_cell_angle_alpha   90.00000292
_cell_angle_beta   89.99999813
_cell_angle_gamma   120.00006247
_symmetry_Int_Tables_number   1
_chemical_formula_structural   Ca5As3BrO12
_chemical_formula_sum   'Ca10 As6 Br2 O24'
_cell_volume   631.96960433
_cell_formula_units_Z   2
loop_
 _symmetry_equiv_pos_site_id
 _symmetry_equiv_pos_as_xyz
  1  'x, y, z'
loop_
 _atom_site_type_symbol
 _atom_site_label
 _atom_site_symmetry_multiplicity
 _atom_site_fract_x
 _atom_site_fract_y
 _atom_site_fract_z
 _atom_site_occupancy
  Ca  Ca0  1  0.23901881  0.27618116  0.25000000  1
  Ca  Ca1  1  0.76098148  0.72381832  0.75000001  1
  Ca  Ca2  1  0.72381872  0.96283778  0.25000000  1
  Ca  Ca3  1  0.27618183  0.03716303  0.75000002  1
  Ca  Ca4  1  0.03716232  0.76098100  0.25000007  1
  Ca  Ca5  1  0.96283684  0.23901867  0.74999999  1
  Ca  Ca6  1  0.33333336  0.66666653  0.99439751  1
  Ca  Ca7  1  0.66666665  0.33333348  0.00560241  1
  Ca  Ca8  1  0.66666663  0.33333349  0.49439752  1
  Ca  Ca9  1  0.33333335  0.66666655  0.50560247  1
  As  As10  1  0.02904048  0.41524134  0.25000000  1
  As  As11  1  0.97095742  0.58475789  0.75000004  1
  As  As12  1  0.58475865  0.61379924  0.25000002  1
  As  As13  1  0.41524208  0.38619942  0.74999999  1
  As  As14  1  0.38620089  0.97095950  0.25000003  1
  As  As15  1  0.61380048  0.02904261  0.74999996  1
  Br  Br16  1  -0.00000000  -0.00000002  -0.00000007  1
  Br  Br17  1  0.00000004  0.00000001  0.50000007  1
  O  O18  1  0.51915342  0.15436006  0.24999997  1
  O  O19  1  0.48084586  0.84563883  0.74999997  1
  O  O20  1  0.84564024  0.36479337  0.24999996  1
  O  O21  1  0.15436086  0.63520703  0.75000001  1
  O  O22  1  0.63520694  0.48084711  0.24999997  1
  O  O23  1  0.36479266  0.51915355  0.74999996  1
  O  O24  1  0.14290275  0.60805437  0.25000002  1
  O  O25  1  0.85709607  0.39194520  0.75000000  1
  O  O26  1  0.39194535  0.53484810  0.25000002  1
  O  O27  1  0.60805496  0.46515111  0.75000000  1
  O  O28  1  0.46515178  0.85709716  0.25000001  1
  O  O29  1  0.53484902  0.14290403  0.74999995  1
  O  O30  1  0.08498867  0.35329074  0.04920341  1
  O  O31  1  0.91501031  0.64670865  0.95079706  1
  O  O32  1  0.64670932  0.73169823  0.04920310  1
  O  O33  1  0.91501029  0.64670867  0.54920304  1
  O  O34  1  0.35329127  0.26830138  0.95079723  1
  O  O35  1  0.08498861  0.35329070  0.45079659  1
  O  O36  1  0.26830182  0.91501124  0.04920316  1
  O  O37  1  0.35329131  0.26830139  0.54920275  1
  O  O38  1  0.73169861  0.08498979  0.95079727  1
  O  O39  1  0.64670939  0.73169823  0.45079692  1
  O  O40  1  0.73169862  0.08498980  0.54920267  1
  O  O41  1  0.26830185  0.91501127  0.45079692  1
