# generated using pymatgen
data_Ca5As3ClO9
_symmetry_space_group_name_H-M   'P 1'
_cell_length_a   10.16552350
_cell_length_b   10.16552217
_cell_length_c   6.57487150
_cell_angle_alpha   90.00000262
_cell_angle_beta   89.99999780
_cell_angle_gamma   120.00005739
_symmetry_Int_Tables_number   1
_chemical_formula_structural   Ca5As3ClO9
_chemical_formula_sum   'Ca10 As6 Cl2 O18'
_cell_volume   588.40599698
_cell_formula_units_Z   2
loop_
 _symmetry_equiv_pos_site_id
 _symmetry_equiv_pos_as_xyz
  1  'x, y, z'
loop_
 _atom_site_type_symbol
 _atom_site_label
 _atom_site_symmetry_multiplicity
 _atom_site_fract_x
 _atom_site_fract_y
 _atom_site_fract_z
 _atom_site_occupancy
  Ca  Ca0  1  0.33333320  0.66666669  0.98101465  1
  Ca  Ca1  1  0.66666678  0.33333340  0.48101467  1
  Ca  Ca2  1  0.66666679  0.33333336  0.01898543  1
  Ca  Ca3  1  0.33333322  0.66666667  0.51898539  1
  Ca  Ca4  1  0.27231970  0.04526880  0.24999999  1
  Ca  Ca5  1  0.22705098  0.27231988  0.74999993  1
  Ca  Ca6  1  0.04526884  0.77294902  0.74999999  1
  Ca  Ca7  1  0.95473117  0.22705095  0.24999996  1
  Ca  Ca8  1  0.77294902  0.72768012  0.25000001  1
  Ca  Ca9  1  0.72768028  0.95473114  0.74999997  1
  As  As10  1  0.41117067  0.40086314  0.24999998  1
  As  As11  1  0.01030746  0.41117047  0.75000001  1
  As  As12  1  0.40086330  0.98969259  0.75000001  1
  As  As13  1  0.59913672  0.01030742  0.24999999  1
  As  As14  1  0.98969255  0.58882951  0.24999998  1
  As  As15  1  0.58882931  0.59913685  0.75000000  1
  Cl  Cl16  1  -0.00000001  -0.00000001  -0.00000001  1
  Cl  Cl17  1  0.00000000  0.00000000  0.49999999  1
  O  O18  1  0.61186067  0.46813680  0.25000004  1
  O  O19  1  0.14372361  0.61186058  0.75000004  1
  O  O20  1  0.46813693  0.85627635  0.74999999  1
  O  O21  1  0.53186308  0.14372366  0.25000005  1
  O  O22  1  0.85627640  0.38813941  0.25000001  1
  O  O23  1  0.38813932  0.53186323  0.75000001  1
  O  O24  1  0.36568722  0.27232109  0.04045336  1
  O  O25  1  0.09336633  0.36568742  0.54045331  1
  O  O26  1  0.27232114  0.90663378  0.54045342  1
  O  O27  1  0.72767888  0.09336622  0.04045338  1
  O  O28  1  0.90663366  0.63431258  0.04045333  1
  O  O29  1  0.63431281  0.72767891  0.54045338  1
  O  O30  1  0.63431279  0.72767892  0.95954663  1
  O  O31  1  0.90663367  0.63431257  0.45954668  1
  O  O32  1  0.72767888  0.09336620  0.45954656  1
  O  O33  1  0.27232114  0.90663378  0.95954660  1
  O  O34  1  0.09336633  0.36568739  0.95954667  1
  O  O35  1  0.36568719  0.27232107  0.45954660  1
