# generated using pymatgen
data_CaAlPO5
_symmetry_space_group_name_H-M   'P 1'
_cell_length_a   5.55461392
_cell_length_b   7.44069405
_cell_length_c   11.11976668
_cell_angle_alpha   90.00009369
_cell_angle_beta   90.00009393
_cell_angle_gamma   93.29409186
_symmetry_Int_Tables_number   1
_chemical_formula_structural   CaAlPO5
_chemical_formula_sum   'Ca4 Al4 P4 O20'
_cell_volume   458.82264367
_cell_formula_units_Z   4
loop_
 _symmetry_equiv_pos_site_id
 _symmetry_equiv_pos_as_xyz
  1  'x, y, z'
loop_
 _atom_site_type_symbol
 _atom_site_label
 _atom_site_symmetry_multiplicity
 _atom_site_fract_x
 _atom_site_fract_y
 _atom_site_fract_z
 _atom_site_occupancy
  Ca  Ca0  1  0.59158279  0.03864595  0.35133473  1
  Ca  Ca1  1  0.90841685  0.96135402  0.85133474  1
  Ca  Ca2  1  0.40841665  0.96135439  0.64866527  1
  Ca  Ca3  1  0.09158259  0.03864641  0.14866512  1
  Al  Al4  1  0.59674070  0.36248480  0.17054871  1
  Al  Al5  1  0.90326034  0.63751559  0.67054837  1
  Al  Al6  1  0.40326084  0.63751540  0.82945081  1
  Al  Al7  1  0.09674115  0.36248460  0.32945197  1
  P  P8  1  0.07583553  0.76977884  0.41179694  1
  P  P9  1  0.42416316  0.23022105  0.91179652  1
  P  P10  1  0.92416328  0.23022137  0.58820378  1
  P  P11  1  0.57583566  0.76977918  0.08820263  1
  O  O12  1  0.84432732  0.27245487  0.24577178  1
  O  O13  1  0.65567458  0.72754537  0.74577161  1
  O  O14  1  0.15567479  0.72754532  0.75422765  1
  O  O15  1  0.34432756  0.27245490  0.25422884  1
  O  O16  1  0.11598547  0.59707259  0.33860726  1
  O  O17  1  0.38401728  0.40292689  0.83860754  1
  O  O18  1  0.88401577  0.40292684  0.66139248  1
  O  O19  1  0.61598427  0.59707253  0.16139254  1
  O  O20  1  0.59146349  0.27735703  0.02129570  1
  O  O21  1  0.90853663  0.72264228  0.52129388  1
  O  O22  1  0.40853667  0.72264264  0.97870520  1
  O  O23  1  0.09146352  0.27735744  0.47870511  1
  O  O24  1  0.95269570  0.90406789  0.32998402  1
  O  O25  1  0.54730116  0.09593069  0.82998552  1
  O  O26  1  0.04730200  0.09593141  0.67001522  1
  O  O27  1  0.45269639  0.90406848  0.17001515  1
  O  O28  1  0.67994649  0.14742677  0.54226383  1
  O  O29  1  0.82005247  0.85257381  0.04226452  1
  O  O30  1  0.32005200  0.85257476  0.45773543  1
  O  O31  1  0.17994592  0.14742792  0.95773610  1
