# generated using pymatgen
data_Cd2AgNO5
_symmetry_space_group_name_H-M   'P 1'
_cell_length_a   6.45871911
_cell_length_b   6.97050295
_cell_length_c   11.91997671
_cell_angle_alpha   90.00016019
_cell_angle_beta   90.00065058
_cell_angle_gamma   89.99995835
_symmetry_Int_Tables_number   1
_chemical_formula_structural   Cd2AgNO5
_chemical_formula_sum   'Cd8 Ag4 N4 O20'
_cell_volume   536.64355712
_cell_formula_units_Z   4
loop_
 _symmetry_equiv_pos_site_id
 _symmetry_equiv_pos_as_xyz
  1  'x, y, z'
loop_
 _atom_site_type_symbol
 _atom_site_label
 _atom_site_symmetry_multiplicity
 _atom_site_fract_x
 _atom_site_fract_y
 _atom_site_fract_z
 _atom_site_occupancy
  Cd  Cd0  1  0.78657132  0.00235367  0.90592882  1
  Cd  Cd1  1  0.21342878  -0.00235385  0.09407128  1
  Cd  Cd2  1  0.71342835  -0.00235382  0.40592867  1
  Cd  Cd3  1  0.28657156  0.00235400  0.59407142  1
  Cd  Cd4  1  0.71342878  0.50235396  0.40592900  1
  Cd  Cd5  1  0.21342858  0.50235373  0.09407149  1
  Cd  Cd6  1  0.28657105  0.49764596  0.59407116  1
  Cd  Cd7  1  0.78657157  0.49764638  0.90592864  1
  Ag  Ag8  1  0.83753499  0.74999996  0.15585789  1
  Ag  Ag9  1  0.66246500  0.25000003  0.65585787  1
  Ag  Ag10  1  0.16246487  0.25000002  0.84414208  1
  Ag  Ag11  1  0.33753514  0.75000001  0.34414210  1
  N  N12  1  0.16490181  0.25000447  0.35124648  1
  N  N13  1  0.83510005  0.74999312  0.64875177  1
  N  N14  1  0.66489791  0.24999877  0.14874992  1
  N  N15  1  0.33510000  0.75000299  0.85124811  1
  O  O16  1  0.26401911  0.24999959  0.25936511  1
  O  O17  1  0.09233488  0.25000007  0.01949107  1
  O  O18  1  0.59233501  0.24999982  0.48050902  1
  O  O19  1  0.73596769  0.75000061  0.74064722  1
  O  O20  1  0.83129297  0.75000030  0.33176629  1
  O  O21  1  0.90766486  0.74999993  0.98050883  1
  O  O22  1  0.23598937  0.74999973  0.75937320  1
  O  O23  1  0.61521423  0.09197275  0.10294218  1
  O  O24  1  0.33129276  0.74999985  0.16823378  1
  O  O25  1  0.38478025  0.90800884  0.89705252  1
  O  O26  1  0.76402361  0.25000014  0.24063892  1
  O  O27  1  0.66870730  0.25000016  0.83176622  1
  O  O28  1  0.38478110  0.59198854  0.89705319  1
  O  O29  1  0.40766527  0.75000018  0.51949087  1
  O  O30  1  0.16870698  0.24999968  0.66823370  1
  O  O31  1  0.11521478  0.40802288  0.39705727  1
  O  O32  1  0.11521355  0.09197315  0.39705828  1
  O  O33  1  0.88479046  0.59195984  0.60293764  1
  O  O34  1  0.61521380  0.40802834  0.10294187  1
  O  O35  1  0.88479227  0.90804621  0.60293613  1
