# generated using pymatgen
data_Cd5As3ClO9
_symmetry_space_group_name_H-M   'P 1'
_cell_length_a   10.20737350
_cell_length_b   10.20736903
_cell_length_c   6.27641236
_cell_angle_alpha   89.99998444
_cell_angle_beta   90.00004311
_cell_angle_gamma   120.00017010
_symmetry_Int_Tables_number   1
_chemical_formula_structural   Cd5As3ClO9
_chemical_formula_sum   'Cd10 As6 Cl2 O18'
_cell_volume   566.32949275
_cell_formula_units_Z   2
loop_
 _symmetry_equiv_pos_site_id
 _symmetry_equiv_pos_as_xyz
  1  'x, y, z'
loop_
 _atom_site_type_symbol
 _atom_site_label
 _atom_site_symmetry_multiplicity
 _atom_site_fract_x
 _atom_site_fract_y
 _atom_site_fract_z
 _atom_site_occupancy
  Cd  Cd0  1  0.33333337  0.66666632  0.99443572  1
  Cd  Cd1  1  0.66666660  0.33333374  0.49443573  1
  Cd  Cd2  1  0.66666661  0.33333365  0.00556431  1
  Cd  Cd3  1  0.33333338  0.66666625  0.50556428  1
  Cd  Cd4  1  0.26860303  0.04702761  0.24999977  1
  Cd  Cd5  1  0.22157503  0.26860262  0.74999972  1
  Cd  Cd6  1  0.04702777  0.77842448  0.75000001  1
  Cd  Cd7  1  0.95297222  0.22157552  0.25000000  1
  Cd  Cd8  1  0.77842498  0.73139738  0.25000026  1
  Cd  Cd9  1  0.73139695  0.95297238  0.75000024  1
  As  As10  1  0.40600978  0.39928481  0.24999972  1
  As  As11  1  0.00672466  0.40600930  0.74999992  1
  As  As12  1  0.39928525  0.99327541  0.74999980  1
  As  As13  1  0.60071473  0.00672458  0.25000021  1
  As  As14  1  0.99327535  0.59399070  0.25000007  1
  As  As15  1  0.59399023  0.60071519  0.75000026  1
  Cl  Cl16  1  -0.00000001  -0.00000001  0.00000001  1
  Cl  Cl17  1  0.00000002  0.00000002  0.50000001  1
  O  O18  1  0.60594926  0.46555610  0.24999986  1
  O  O19  1  0.14039320  0.60594898  0.74999995  1
  O  O20  1  0.46555574  0.85960686  0.74999990  1
  O  O21  1  0.53444425  0.14039315  0.25000014  1
  O  O22  1  0.85960681  0.39405102  0.25000009  1
  O  O23  1  0.39405076  0.53444391  0.75000013  1
  O  O24  1  0.35907310  0.26814077  0.03476204  1
  O  O25  1  0.09093235  0.35907317  0.53476242  1
  O  O26  1  0.26814097  0.90906818  0.53476233  1
  O  O27  1  0.73185892  0.09093198  0.03476283  1
  O  O28  1  0.90906768  0.64092699  0.03476255  1
  O  O29  1  0.64092686  0.73185931  0.53476268  1
  O  O30  1  0.64092693  0.73185924  0.96523794  1
  O  O31  1  0.90906769  0.64092687  0.46523755  1
  O  O32  1  0.73185903  0.09093180  0.46523765  1
  O  O33  1  0.26814105  0.90906803  0.96523717  1
  O  O34  1  0.09093233  0.35907299  0.96523742  1
  O  O35  1  0.35907314  0.26814069  0.46523730  1
