# generated using pymatgen
data_Cd5As3BrO12
_symmetry_space_group_name_H-M   'P 1'
_cell_length_a   10.38368537
_cell_length_b   10.38368502
_cell_length_c   6.54565383
_cell_angle_alpha   90.00000029
_cell_angle_beta   90.00000090
_cell_angle_gamma   120.00013492
_symmetry_Int_Tables_number   1
_chemical_formula_structural   Cd5As3BrO12
_chemical_formula_sum   'Cd10 As6 Br2 O24'
_cell_volume   611.20387812
_cell_formula_units_Z   2
loop_
 _symmetry_equiv_pos_site_id
 _symmetry_equiv_pos_as_xyz
  1  'x, y, z'
loop_
 _atom_site_type_symbol
 _atom_site_label
 _atom_site_symmetry_multiplicity
 _atom_site_fract_x
 _atom_site_fract_y
 _atom_site_fract_z
 _atom_site_occupancy
  Cd  Cd0  1  0.23066456  0.27442635  0.25000001  1
  Cd  Cd1  1  0.76933563  0.72557344  0.75000004  1
  Cd  Cd2  1  0.72557311  0.95623823  0.24999998  1
  Cd  Cd3  1  0.27442711  0.04376216  0.74999997  1
  Cd  Cd4  1  0.04376178  0.76933479  0.25000002  1
  Cd  Cd5  1  0.95623780  0.23066503  0.75000000  1
  Cd  Cd6  1  0.33333340  0.66666633  0.99894363  1
  Cd  Cd7  1  0.66666660  0.33333367  0.00105650  1
  Cd  Cd8  1  0.66666658  0.33333367  0.49894350  1
  Cd  Cd9  1  0.33333339  0.66666636  0.50105637  1
  As  As10  1  0.02256484  0.40914329  0.25000002  1
  As  As11  1  0.97743162  0.59085573  0.75000002  1
  As  As12  1  0.59085682  0.61342194  0.25000003  1
  As  As13  1  0.40914420  0.38657533  0.75000002  1
  As  As14  1  0.38657844  0.97743512  0.24999998  1
  As  As15  1  0.61342414  0.02256849  0.75000000  1
  Br  Br16  1  -0.00000015  -0.00000007  -0.00000002  1
  Br  Br17  1  0.00000012  0.00000004  0.49999998  1
  O  O18  1  0.51984902  0.16055944  0.24999999  1
  O  O19  1  0.48014908  0.83943795  0.75000000  1
  O  O20  1  0.83944037  0.35928929  0.25000000  1
  O  O21  1  0.16056224  0.64071139  0.75000002  1
  O  O22  1  0.64071112  0.48015119  0.25000001  1
  O  O23  1  0.35928830  0.51985046  0.75000000  1
  O  O24  1  0.14081750  0.60308363  0.25000000  1
  O  O25  1  0.85918315  0.39691689  0.75000000  1
  O  O26  1  0.39691585  0.53773318  0.25000004  1
  O  O27  1  0.60308311  0.46226673  0.75000003  1
  O  O28  1  0.46226607  0.85918278  0.24999996  1
  O  O29  1  0.53773385  0.14081653  0.74999998  1
  O  O30  1  0.08006690  0.34636981  0.04360091  1
  O  O31  1  0.91993354  0.65363027  0.95639868  1
  O  O32  1  0.65363025  0.73369738  0.04360047  1
  O  O33  1  0.91993355  0.65363029  0.54360137  1
  O  O34  1  0.34636979  0.26630326  0.95639839  1
  O  O35  1  0.08006689  0.34636981  0.45639908  1
  O  O36  1  0.26630273  0.91993308  0.04360107  1
  O  O37  1  0.34636986  0.26630329  0.54360155  1
  O  O38  1  0.73369684  0.08006649  0.95639841  1
  O  O39  1  0.65363034  0.73369743  0.45639953  1
  O  O40  1  0.73369686  0.08006646  0.54360157  1
  O  O41  1  0.26630277  0.91993305  0.45639891  1
