# generated using pymatgen
data_CdAg2SI2
_symmetry_space_group_name_H-M   'P 1'
_cell_length_a   7.87651461
_cell_length_b   7.87651336
_cell_length_c   7.33293634
_cell_angle_alpha   90.00000471
_cell_angle_beta   90.00000178
_cell_angle_gamma   120.65488617
_symmetry_Int_Tables_number   1
_chemical_formula_structural   CdAg2SI2
_chemical_formula_sum   'Cd2 Ag4 S2 I4'
_cell_volume   391.35664430
_cell_formula_units_Z   2
loop_
 _symmetry_equiv_pos_site_id
 _symmetry_equiv_pos_as_xyz
  1  'x, y, z'
loop_
 _atom_site_type_symbol
 _atom_site_label
 _atom_site_symmetry_multiplicity
 _atom_site_fract_x
 _atom_site_fract_y
 _atom_site_fract_z
 _atom_site_occupancy
  Cd  Cd0  1  0.11512716  0.11512717  0.65871403  1
  Cd  Cd1  1  0.88487283  0.88487282  0.15871397  1
  Ag  Ag2  1  0.47231304  0.18019829  0.21004063  1
  Ag  Ag3  1  0.18019835  0.47231305  0.21004062  1
  Ag  Ag4  1  0.81980169  0.52768692  0.71004057  1
  Ag  Ag5  1  0.52768693  0.81980171  0.71004056  1
  S  S6  1  0.16645058  0.16645061  0.32140060  1
  S  S7  1  0.83354941  0.83354939  0.82140056  1
  I  I8  1  0.48221920  0.15395895  0.81280164  1
  I  I9  1  0.15395897  0.48221922  0.81280161  1
  I  I10  1  0.51778079  0.84604107  0.31280162  1
  I  I11  1  0.84604105  0.51778080  0.31280159  1
