# generated using pymatgen
data_CdAgSBr
_symmetry_space_group_name_H-M   'P 1'
_cell_length_a   4.55712147
_cell_length_b   10.35712711
_cell_length_c   9.09458127
_cell_angle_alpha   89.99999044
_cell_angle_beta   89.99999893
_cell_angle_gamma   90.00000202
_symmetry_Int_Tables_number   1
_chemical_formula_structural   CdAgSBr
_chemical_formula_sum   'Cd4 Ag4 S4 Br4'
_cell_volume   429.25228858
_cell_formula_units_Z   4
loop_
 _symmetry_equiv_pos_site_id
 _symmetry_equiv_pos_as_xyz
  1  'x, y, z'
loop_
 _atom_site_type_symbol
 _atom_site_label
 _atom_site_symmetry_multiplicity
 _atom_site_fract_x
 _atom_site_fract_y
 _atom_site_fract_z
 _atom_site_occupancy
  Cd  Cd0  1  0.49999993  0.21395728  0.75000008  1
  Cd  Cd1  1  0.50000011  0.78604273  0.25000019  1
  Cd  Cd2  1  0.50000061  0.50000004  -0.00000049  1
  Cd  Cd3  1  0.50000062  0.49999996  0.49999953  1
  Ag  Ag4  1  -0.00000016  0.19879478  0.41610469  1
  Ag  Ag5  1  0.00000008  0.80120509  0.58389543  1
  Ag  Ag6  1  0.00000003  0.19879504  0.08389552  1
  Ag  Ag7  1  -0.00000017  0.80120512  0.91610460  1
  S  S8  1  0.49999981  0.26237169  0.01751668  1
  S  S9  1  0.50000002  0.73762829  -0.01751669  1
  S  S10  1  0.50000003  0.73762828  0.51751662  1
  S  S11  1  0.49999986  0.26237173  0.48248337  1
  Br  Br12  1  -0.00000008  0.03562465  0.74999992  1
  Br  Br13  1  -0.00000047  0.47163579  0.75000027  1
  Br  Br14  1  -0.00000028  0.52836421  0.25000024  1
  Br  Br15  1  0.00000007  0.96437533  0.25000004  1
