# generated using pymatgen
data_Co2BiS4
_symmetry_space_group_name_H-M   'P 1'
_cell_length_a   7.82731947
_cell_length_b   7.82694086
_cell_length_c   9.96335680
_cell_angle_alpha   90.00000225
_cell_angle_beta   90.00000350
_cell_angle_gamma   90.00000293
_symmetry_Int_Tables_number   1
_chemical_formula_structural   Co2BiS4
_chemical_formula_sum   'Co8 Bi4 S16'
_cell_volume   610.39475806
_cell_formula_units_Z   4
loop_
 _symmetry_equiv_pos_site_id
 _symmetry_equiv_pos_as_xyz
  1  'x, y, z'
loop_
 _atom_site_type_symbol
 _atom_site_label
 _atom_site_symmetry_multiplicity
 _atom_site_fract_x
 _atom_site_fract_y
 _atom_site_fract_z
 _atom_site_occupancy
  Co  Co0  1  -0.00000001  0.50000003  0.74998716  1
  Co  Co1  1  -0.00000000  0.49999998  0.00000690  1
  Co  Co2  1  -0.00000001  0.49999988  0.25001284  1
  Co  Co3  1  0.50000000  -0.00000001  0.50001065  1
  Co  Co4  1  0.49999998  0.00000004  0.24997494  1
  Co  Co5  1  0.49999997  -0.00000002  0.75002490  1
  Co  Co6  1  -0.00000006  0.49999992  0.49999312  1
  Co  Co7  1  0.49999999  0.00000004  -0.00001047  1
  Bi  Bi8  1  0.50000004  0.49999999  0.65506968  1
  Bi  Bi9  1  0.00000000  0.00000001  0.84493046  1
  Bi  Bi10  1  0.50000006  0.49999998  0.34493048  1
  Bi  Bi11  1  -0.00000003  0.00000003  0.15506938  1
  S  S12  1  0.85394049  0.33425072  0.87478231  1
  S  S13  1  0.64605876  0.83424605  0.37478428  1
  S  S14  1  0.33426198  0.85394524  0.12522229  1
  S  S15  1  0.83425819  0.64606023  0.62521816  1
  S  S16  1  0.35394117  0.16575394  0.37478429  1
  S  S17  1  0.14605944  0.66574936  0.87478231  1
  S  S18  1  0.83425992  0.35394180  0.37478218  1
  S  S19  1  0.66573799  0.14605476  0.12522230  1
  S  S20  1  0.64605558  0.16575018  0.62521395  1
  S  S21  1  0.16574189  0.35393975  0.62521826  1
  S  S22  1  0.66573442  0.85394842  0.87477955  1
  S  S23  1  0.33426554  0.14605157  0.87477947  1
  S  S24  1  0.16574021  0.64605824  0.37478217  1
  S  S25  1  0.14605744  0.33425237  0.12521724  1
  S  S26  1  0.85394256  0.66574768  0.12521728  1
  S  S27  1  0.35394449  0.83424979  0.62521393  1
