# generated using pymatgen
data_Co2BiSe4
_symmetry_space_group_name_H-M   'P 1'
_cell_length_a   8.21862727
_cell_length_b   8.21813228
_cell_length_c   10.28535168
_cell_angle_alpha   89.99997451
_cell_angle_beta   90.00016241
_cell_angle_gamma   90.00024436
_symmetry_Int_Tables_number   1
_chemical_formula_structural   Co2BiSe4
_chemical_formula_sum   'Co8 Bi4 Se16'
_cell_volume   694.69081706
_cell_formula_units_Z   4
loop_
 _symmetry_equiv_pos_site_id
 _symmetry_equiv_pos_as_xyz
  1  'x, y, z'
loop_
 _atom_site_type_symbol
 _atom_site_label
 _atom_site_symmetry_multiplicity
 _atom_site_fract_x
 _atom_site_fract_y
 _atom_site_fract_z
 _atom_site_occupancy
  Co  Co0  1  -0.00000004  0.50000026  0.75007661  1
  Co  Co1  1  0.00000006  0.49999966  -0.00003626  1
  Co  Co2  1  -0.00000007  0.50000027  0.24992528  1
  Co  Co3  1  0.49999996  0.00000037  0.49995613  1
  Co  Co4  1  0.50000005  -0.00000027  0.24997350  1
  Co  Co5  1  0.50000006  -0.00000024  0.75002634  1
  Co  Co6  1  0.00000006  0.49999964  0.50003447  1
  Co  Co7  1  0.49999991  0.00000036  0.00004388  1
  Bi  Bi8  1  0.00000002  0.00000000  0.85032572  1
  Bi  Bi9  1  0.49999998  0.49999999  0.64966866  1
  Bi  Bi10  1  0.50000003  0.50000000  0.35033144  1
  Bi  Bi11  1  -0.00000003  0.00000001  0.14967420  1
  Se  Se12  1  0.33112451  0.15091101  0.87444521  1
  Se  Se13  1  0.34908859  0.16888268  0.37446570  1
  Se  Se14  1  0.83108816  0.34906454  0.37445908  1
  Se  Se15  1  0.66887559  0.84908890  0.87444493  1
  Se  Se16  1  0.34907684  0.83110451  0.62554740  1
  Se  Se17  1  0.15090260  0.33113568  0.12556099  1
  Se  Se18  1  0.33113765  0.84910077  0.12554225  1
  Se  Se19  1  0.84910763  0.33114675  0.87445128  1
  Se  Se20  1  0.84909745  0.66886432  0.12556133  1
  Se  Se21  1  0.65092314  0.16889543  0.62554716  1
  Se  Se22  1  0.15089232  0.66885326  0.87445105  1
  Se  Se23  1  0.65091139  0.83111732  0.37446538  1
  Se  Se24  1  0.16891194  0.65093554  0.37445887  1
  Se  Se25  1  0.83109732  0.65092638  0.62552883  1
  Se  Se26  1  0.16890262  0.34907369  0.62552853  1
  Se  Se27  1  0.66886228  0.15089918  0.12554203  1
