# generated using pymatgen
data_Co2HgSe4
_symmetry_space_group_name_H-M   'P 1'
_cell_length_a   5.87299167
_cell_length_b   5.87299468
_cell_length_c   6.45895962
_cell_angle_alpha   117.04237030
_cell_angle_beta   117.04240298
_cell_angle_gamma   89.99968632
_symmetry_Int_Tables_number   1
_chemical_formula_structural   Co2HgSe4
_chemical_formula_sum   'Co2 Hg1 Se4'
_cell_volume   170.62742708
_cell_formula_units_Z   1
loop_
 _symmetry_equiv_pos_site_id
 _symmetry_equiv_pos_as_xyz
  1  'x, y, z'
loop_
 _atom_site_type_symbol
 _atom_site_label
 _atom_site_symmetry_multiplicity
 _atom_site_fract_x
 _atom_site_fract_y
 _atom_site_fract_z
 _atom_site_occupancy
  Co  Co0  1  0.25000194  0.75000194  0.50000053  1
  Co  Co1  1  0.50000143  0.50000236  0.00000046  1
  Hg  Hg2  1  0.00000087  -0.00000005  -0.00000088  1
  Se  Se3  1  0.16522824  0.13282021  0.72061746  1
  Se  Se4  1  0.55538416  0.58779394  0.72061585  1
  Se  Se5  1  0.86717822  0.44461304  0.27938234  1
  Se  Se6  1  0.41220413  0.83476956  0.27938425  1
