# generated using pymatgen
data_Co2PbSe4
_symmetry_space_group_name_H-M   'P 1'
_cell_length_a   6.16946209
_cell_length_b   6.16937110
_cell_length_c   11.15505671
_cell_angle_alpha   89.99999892
_cell_angle_beta   89.99999948
_cell_angle_gamma   129.64954926
_symmetry_Int_Tables_number   1
_chemical_formula_structural   Co2PbSe4
_chemical_formula_sum   'Co4 Pb2 Se8'
_cell_volume   326.91067822
_cell_formula_units_Z   2
loop_
 _symmetry_equiv_pos_site_id
 _symmetry_equiv_pos_as_xyz
  1  'x, y, z'
loop_
 _atom_site_type_symbol
 _atom_site_label
 _atom_site_symmetry_multiplicity
 _atom_site_fract_x
 _atom_site_fract_y
 _atom_site_fract_z
 _atom_site_occupancy
  Co  Co0  1  0.24799813  0.75166603  -0.00000000  1
  Co  Co1  1  0.24833870  0.75199664  0.50000000  1
  Co  Co2  1  0.75165569  0.24799281  0.49999999  1
  Co  Co3  1  0.75201139  0.24834366  -0.00000000  1
  Pb  Pb4  1  0.49999670  0.50000103  0.25000052  1
  Pb  Pb5  1  0.49999666  0.50000096  0.74999949  1
  Se  Se6  1  0.00000477  0.50000341  0.16586429  1
  Se  Se7  1  0.16831922  0.33789631  0.50000001  1
  Se  Se8  1  0.49999279  -0.00000648  0.33413577  1
  Se  Se9  1  0.33789537  0.16831704  0.00000001  1
  Se  Se10  1  0.66211626  0.83169082  -0.00000001  1
  Se  Se11  1  0.49999275  -0.00000652  0.66586424  1
  Se  Se12  1  0.83167675  0.66210081  0.50000000  1
  Se  Se13  1  0.00000482  0.50000349  0.83413571  1
