# generated using pymatgen
data_Co2PbS4
_symmetry_space_group_name_H-M   'P 1'
_cell_length_a   5.89431259
_cell_length_b   5.89432855
_cell_length_c   10.66870982
_cell_angle_alpha   89.99999991
_cell_angle_beta   90.00000059
_cell_angle_gamma   129.01134344
_symmetry_Int_Tables_number   1
_chemical_formula_structural   Co2PbS4
_chemical_formula_sum   'Co4 Pb2 S8'
_cell_volume   288.01317834
_cell_formula_units_Z   2
loop_
 _symmetry_equiv_pos_site_id
 _symmetry_equiv_pos_as_xyz
  1  'x, y, z'
loop_
 _atom_site_type_symbol
 _atom_site_label
 _atom_site_symmetry_multiplicity
 _atom_site_fract_x
 _atom_site_fract_y
 _atom_site_fract_z
 _atom_site_occupancy
  Co  Co0  1  0.75386131  0.24653317  0.49999999  1
  Co  Co1  1  0.24613736  0.75346608  0.50000001  1
  Co  Co2  1  0.75346852  0.24613596  -0.00000000  1
  Co  Co3  1  0.24653263  0.75386454  0.00000000  1
  Pb  Pb4  1  0.50000071  0.50000027  0.75000041  1
  Pb  Pb5  1  0.50000066  0.50000027  0.24999958  1
  S  S6  1  0.34685951  0.16886149  0.50000000  1
  S  S7  1  0.65313931  0.83113811  0.50000000  1
  S  S8  1  0.83113634  0.65313565  0.00000000  1
  S  S9  1  0.16886568  0.34686627  -0.00000001  1
  S  S10  1  0.49999932  -0.00000079  0.83908747  1
  S  S11  1  -0.00000037  0.49999986  0.66091328  1
  S  S12  1  0.49999935  -0.00000079  0.16091254  1
  S  S13  1  -0.00000034  0.49999992  0.33908673  1
