# generated using pymatgen
data_CoAg2GeS4
_symmetry_space_group_name_H-M   'P 1'
_cell_length_a   6.46420831
_cell_length_b   6.68261414
_cell_length_c   7.93172101
_cell_angle_alpha   89.99978797
_cell_angle_beta   89.66478499
_cell_angle_gamma   90.00011366
_symmetry_Int_Tables_number   1
_chemical_formula_structural   CoAg2GeS4
_chemical_formula_sum   'Co2 Ag4 Ge2 S8'
_cell_volume   342.62711163
_cell_formula_units_Z   2
loop_
 _symmetry_equiv_pos_site_id
 _symmetry_equiv_pos_as_xyz
  1  'x, y, z'
loop_
 _atom_site_type_symbol
 _atom_site_label
 _atom_site_symmetry_multiplicity
 _atom_site_fract_x
 _atom_site_fract_y
 _atom_site_fract_z
 _atom_site_occupancy
  Co  Co0  1  0.95903930  0.18303430  0.75455330  1
  Co  Co1  1  0.45903955  0.81696634  0.25455328  1
  Ag  Ag2  1  0.97084622  0.16968302  0.24501125  1
  Ag  Ag3  1  0.47084496  0.83031511  0.74501150  1
  Ag  Ag4  1  0.96113096  0.65631128  0.49907778  1
  Ag  Ag5  1  0.46112932  0.34368911  0.99907666  1
  Ge  Ge6  1  0.46119808  0.31796132  0.50032183  1
  Ge  Ge7  1  0.96119634  0.68203861  0.00032239  1
  S  S8  1  0.35505356  0.64257434  0.48244260  1
  S  S9  1  0.85505458  0.35742496  -0.01755725  1
  S  S10  1  0.36124085  0.14317225  0.26782761  1
  S  S11  1  0.31229488  0.18264429  0.73270016  1
  S  S12  1  0.81229508  0.81735660  0.23270145  1
  S  S13  1  0.86124122  0.85682778  0.76782868  1
  S  S14  1  0.81319807  0.30346329  0.51806409  1
  S  S15  1  0.31319704  0.69653740  0.01806466  1
