# generated using pymatgen
data_CoCuSnSe4
_symmetry_space_group_name_H-M   'P 1'
_cell_length_a   6.82035317
_cell_length_b   6.82022399
_cell_length_c   6.82084712
_cell_angle_alpha   131.82024615
_cell_angle_beta   131.82273135
_cell_angle_gamma   70.52618012
_symmetry_Int_Tables_number   1
_chemical_formula_structural   CoCuSnSe4
_chemical_formula_sum   'Co1 Cu1 Sn1 Se4'
_cell_volume   172.63324626
_cell_formula_units_Z   1
loop_
 _symmetry_equiv_pos_site_id
 _symmetry_equiv_pos_as_xyz
  1  'x, y, z'
loop_
 _atom_site_type_symbol
 _atom_site_label
 _atom_site_symmetry_multiplicity
 _atom_site_fract_x
 _atom_site_fract_y
 _atom_site_fract_z
 _atom_site_occupancy
  Co  Co0  1  0.75003450  0.25006303  0.50007967  1
  Cu  Cu1  1  0.25005479  0.75004032  0.50007519  1
  Sn  Sn2  1  0.50006552  0.50005886  0.00007697  1
  Se  Se3  1  0.08625930  0.09948413  0.45019008  1
  Se  Se4  1  0.64924832  0.63602498  0.54971354  1
  Se  Se5  1  0.36392173  0.91367027  0.01317275  1
  Se  Se6  1  0.90041584  0.35065840  0.98669181  1
