# generated using pymatgen
data_CoCuS2
_symmetry_space_group_name_H-M   'P 1'
_cell_length_a   5.11368637
_cell_length_b   5.11368659
_cell_length_c   6.24700981
_cell_angle_alpha   114.13905473
_cell_angle_beta   114.13905456
_cell_angle_gamma   90.01854833
_symmetry_Int_Tables_number   1
_chemical_formula_structural   CoCuS2
_chemical_formula_sum   'Co2 Cu2 S4'
_cell_volume   133.25518800
_cell_formula_units_Z   2
loop_
 _symmetry_equiv_pos_site_id
 _symmetry_equiv_pos_as_xyz
  1  'x, y, z'
loop_
 _atom_site_type_symbol
 _atom_site_label
 _atom_site_symmetry_multiplicity
 _atom_site_fract_x
 _atom_site_fract_y
 _atom_site_fract_z
 _atom_site_occupancy
  Co  Co0  1  0.49985890  0.49998240  0.00007384  1
  Co  Co1  1  0.74998242  0.24985894  0.50007385  1
  Cu  Cu2  1  0.24997132  0.75000438  0.50008425  1
  Cu  Cu3  1  0.00000436  -0.00002872  0.00008441  1
  S  S4  1  0.85332882  0.87501505  0.24989783  1
  S  S5  1  0.62509864  0.14673892  0.74994408  1
  S  S6  1  0.39673865  0.37509985  0.24994351  1
  S  S7  1  0.12501688  0.60332917  0.74989823  1
