# generated using pymatgen
data_CoCuSe2
_symmetry_space_group_name_H-M   'P 1'
_cell_length_a   5.42239164
_cell_length_b   5.42239114
_cell_length_c   6.63647749
_cell_angle_alpha   114.11389015
_cell_angle_beta   114.11390379
_cell_angle_gamma   89.99766837
_symmetry_Int_Tables_number   1
_chemical_formula_structural   CoCuSe2
_chemical_formula_sum   'Co2 Cu2 Se4'
_cell_volume   159.26361236
_cell_formula_units_Z   2
loop_
 _symmetry_equiv_pos_site_id
 _symmetry_equiv_pos_as_xyz
  1  'x, y, z'
loop_
 _atom_site_type_symbol
 _atom_site_label
 _atom_site_symmetry_multiplicity
 _atom_site_fract_x
 _atom_site_fract_y
 _atom_site_fract_z
 _atom_site_occupancy
  Co  Co0  1  0.74999725  0.24999808  0.49999589  1
  Co  Co1  1  0.49999809  0.49999731  -0.00000406  1
  Cu  Cu2  1  0.24999742  0.74999741  0.49999611  1
  Cu  Cu3  1  -0.00000258  -0.00000251  -0.00000386  1
  Se  Se4  1  0.39033292  0.37500384  0.25000886  1
  Se  Se5  1  0.12500084  0.60967131  0.74999910  1
  Se  Se6  1  0.62499974  0.14032792  0.74999895  1
  Se  Se7  1  0.85967631  0.87500665  0.25000902  1
