# generated using pymatgen
data_CoCuSnS4
_symmetry_space_group_name_H-M   'P 1'
_cell_length_a   7.10751489
_cell_length_b   7.10751862
_cell_length_c   7.10752688
_cell_angle_alpha   120.50017804
_cell_angle_beta   119.36900318
_cell_angle_gamma   90.11667548
_symmetry_Int_Tables_number   1
_chemical_formula_structural   CoCuSnS4
_chemical_formula_sum   'Co2 Cu2 Sn2 S8'
_cell_volume   254.10463853
_cell_formula_units_Z   2
loop_
 _symmetry_equiv_pos_site_id
 _symmetry_equiv_pos_as_xyz
  1  'x, y, z'
loop_
 _atom_site_type_symbol
 _atom_site_label
 _atom_site_symmetry_multiplicity
 _atom_site_fract_x
 _atom_site_fract_y
 _atom_site_fract_z
 _atom_site_occupancy
  Co  Co0  1  -0.00000093  0.00000003  0.50000095  1
  Co  Co1  1  -0.00000091  0.49999822  -0.00000088  1
  Cu  Cu2  1  0.38129087  0.63128629  0.75000300  1
  Cu  Cu3  1  0.61871682  0.36872116  0.24999696  1
  Sn  Sn4  1  -0.00000054  -0.00000036  -0.00000020  1
  Sn  Sn5  1  0.49999983  -0.00000035  0.50000017  1
  S  S6  1  0.22866643  0.72332239  0.99464987  1
  S  S7  1  0.22867192  0.23401856  0.50534969  1
  S  S8  1  0.21242402  0.74708956  0.46534037  1
  S  S9  1  0.78175049  0.74708528  0.03465933  1
  S  S10  1  0.77133111  0.27667623  0.00535116  1
  S  S11  1  0.77132555  0.76597787  0.49464924  1
  S  S12  1  0.78757270  0.25291042  0.53465646  1
  S  S13  1  0.21825263  0.25291469  0.96534387  1
