# generated using pymatgen
data_Cr2Ag2Bi2S3Cl8
_symmetry_space_group_name_H-M   'P 1'
_cell_length_a   6.99393959
_cell_length_b   6.99395007
_cell_length_c   23.58164697
_cell_angle_alpha   90.00243057
_cell_angle_beta   90.00160434
_cell_angle_gamma   119.99990516
_symmetry_Int_Tables_number   1
_chemical_formula_structural   Cr2Ag2Bi2S3Cl8
_chemical_formula_sum   'Cr4 Ag4 Bi4 S6 Cl16'
_cell_volume   998.96341484
_cell_formula_units_Z   2
loop_
 _symmetry_equiv_pos_site_id
 _symmetry_equiv_pos_as_xyz
  1  'x, y, z'
loop_
 _atom_site_type_symbol
 _atom_site_label
 _atom_site_symmetry_multiplicity
 _atom_site_fract_x
 _atom_site_fract_y
 _atom_site_fract_z
 _atom_site_occupancy
  Cr  Cr0  1  0.66668185  0.33335111  0.92398194  1
  Cr  Cr1  1  0.66663437  0.33330247  0.57601807  1
  Cr  Cr2  1  0.33334529  0.66668530  0.42398068  1
  Cr  Cr3  1  0.33331904  0.66664993  0.07601953  1
  Ag  Ag4  1  0.66666516  0.33333159  0.74999974  1
  Ag  Ag5  1  0.33333314  0.66666726  0.25000008  1
  Ag  Ag6  1  -0.00000027  0.00000087  0.74999980  1
  Ag  Ag7  1  -0.00000043  -0.00000133  0.24999999  1
  Bi  Bi8  1  0.33333750  0.66667419  0.82431588  1
  Bi  Bi9  1  0.33332823  0.66665771  0.67568365  1
  Bi  Bi10  1  0.66667542  0.33334139  0.32431613  1
  Bi  Bi11  1  0.66665826  0.33332570  0.17568404  1
  S  S12  1  0.62318526  0.66909167  0.75000031  1
  S  S13  1  0.33090613  0.95409140  0.75000121  1
  S  S14  1  0.04590564  0.37681486  0.74999757  1
  S  S15  1  0.66909195  0.62318506  0.25000154  1
  S  S16  1  0.95409275  0.33090686  0.25000104  1
  S  S17  1  0.37681510  0.04590807  0.24999787  1
  Cl  Cl18  1  0.66664901  0.33331481  0.01711109  1
  Cl  Cl19  1  0.66672004  0.33338276  0.48288920  1
  Cl  Cl20  1  0.33332957  0.66664523  0.51711061  1
  Cl  Cl21  1  0.33334972  0.66668606  0.98288935  1
  Cl  Cl22  1  0.73415317  0.09191690  0.87985517  1
  Cl  Cl23  1  0.90809454  0.64223521  0.87984912  1
  Cl  Cl24  1  0.35776899  0.26586381  0.87985606  1
  Cl  Cl25  1  0.73412412  0.09189489  0.62015004  1
  Cl  Cl26  1  0.90808218  0.64223159  0.62013417  1
  Cl  Cl27  1  0.35775397  0.26583926  0.62015534  1
  Cl  Cl28  1  0.09192157  0.73415814  0.37984950  1
  Cl  Cl29  1  0.64223190  0.90809473  0.37984930  1
  Cl  Cl30  1  0.26585935  0.35777000  0.37985718  1
  Cl  Cl31  1  0.09190594  0.73413516  0.12014923  1
  Cl  Cl32  1  0.64223295  0.90808297  0.12014421  1
  Cl  Cl33  1  0.26584860  0.35776439  0.12015138  1
