# generated using pymatgen
data_Cr2BiS4
_symmetry_space_group_name_H-M   'P 1'
_cell_length_a   7.85125795
_cell_length_b   7.85157459
_cell_length_c   11.91269961
_cell_angle_alpha   89.99993436
_cell_angle_beta   89.99998791
_cell_angle_gamma   89.99991995
_symmetry_Int_Tables_number   1
_chemical_formula_structural   Cr2BiS4
_chemical_formula_sum   'Cr8 Bi4 S16'
_cell_volume   734.35523942
_cell_formula_units_Z   4
loop_
 _symmetry_equiv_pos_site_id
 _symmetry_equiv_pos_as_xyz
  1  'x, y, z'
loop_
 _atom_site_type_symbol
 _atom_site_label
 _atom_site_symmetry_multiplicity
 _atom_site_fract_x
 _atom_site_fract_y
 _atom_site_fract_z
 _atom_site_occupancy
  Cr  Cr0  1  0.00000016  0.50000025  0.75000405  1
  Cr  Cr1  1  0.00000004  0.50000004  0.00000550  1
  Cr  Cr2  1  -0.00000014  0.49999999  0.24999410  1
  Cr  Cr3  1  0.49999993  -0.00000020  0.50000329  1
  Cr  Cr4  1  0.50000017  0.00000010  0.25000822  1
  Cr  Cr5  1  0.49999988  -0.00000009  0.74999361  1
  Cr  Cr6  1  -0.00000001  0.50000006  0.49999634  1
  Cr  Cr7  1  0.49999990  0.00000001  -0.00000520  1
  Bi  Bi8  1  0.49999995  0.49999998  0.63024456  1
  Bi  Bi9  1  0.00000011  0.00000004  0.86975521  1
  Bi  Bi10  1  0.50000001  0.50000005  0.36975494  1
  Bi  Bi11  1  -0.00000011  0.00000002  0.13024507  1
  S  S12  1  0.85819300  0.33484800  0.87382967  1
  S  S13  1  0.64180512  0.83485231  0.37383121  1
  S  S14  1  0.33487229  0.85818427  0.12616987  1
  S  S15  1  0.83487715  0.64181541  0.62617186  1
  S  S16  1  0.35819502  0.16514768  0.37383126  1
  S  S17  1  0.14180701  0.66515199  0.87382989  1
  S  S18  1  0.83487809  0.35818774  0.37382934  1
  S  S19  1  0.66512759  0.14181580  0.12616984  1
  S  S20  1  0.64180183  0.16514682  0.62616827  1
  S  S21  1  0.16512282  0.35818470  0.62617180  1
  S  S22  1  0.66512103  0.85818773  0.87383044  1
  S  S23  1  0.33487938  0.14181198  0.87383039  1
  S  S24  1  0.16512177  0.64181222  0.37382939  1
  S  S25  1  0.14180366  0.33485482  0.12616944  1
  S  S26  1  0.85819604  0.66514510  0.12616937  1
  S  S27  1  0.35819827  0.83485318  0.62616827  1
