# generated using pymatgen
data_Cr2CdCl8
_symmetry_space_group_name_H-M   'P 1'
_cell_length_a   7.06996107
_cell_length_b   7.61495359
_cell_length_c   13.67128427
_cell_angle_alpha   89.95075440
_cell_angle_beta   89.99961922
_cell_angle_gamma   89.99861035
_symmetry_Int_Tables_number   1
_chemical_formula_structural   Cr2CdCl8
_chemical_formula_sum   'Cr4 Cd2 Cl16'
_cell_volume   736.02647576
_cell_formula_units_Z   2
loop_
 _symmetry_equiv_pos_site_id
 _symmetry_equiv_pos_as_xyz
  1  'x, y, z'
loop_
 _atom_site_type_symbol
 _atom_site_label
 _atom_site_symmetry_multiplicity
 _atom_site_fract_x
 _atom_site_fract_y
 _atom_site_fract_z
 _atom_site_occupancy
  Cr  Cr0  1  0.94089383  0.43376399  0.51983171  1
  Cr  Cr1  1  0.44365031  0.84469236  0.24322663  1
  Cr  Cr2  1  0.55633125  0.84471208  0.74322867  1
  Cr  Cr3  1  0.05912472  0.43375130  0.01984225  1
  Cd  Cd4  1  0.74093037  -0.00646645  0.50812035  1
  Cd  Cd5  1  0.25906936  -0.00646374  0.00812095  1
  Cl  Cl6  1  0.92430934  0.47601909  0.15863407  1
  Cl  Cl7  1  0.07569600  0.47602027  0.65863666  1
  Cl  Cl8  1  0.64776849  0.34213938  0.54269444  1
  Cl  Cl9  1  0.35221573  0.34214282  0.04269484  1
  Cl  Cl10  1  0.92502807  0.70618116  0.45420902  1
  Cl  Cl11  1  0.07497422  0.70618101  0.95420604  1
  Cl  Cl12  1  0.43446617  0.86635054  0.59015743  1
  Cl  Cl13  1  0.56553026  0.86634665  0.09015684  1
  Cl  Cl14  1  0.05439251  0.17277862  0.46707701  1
  Cl  Cl15  1  0.94560345  0.17277606  0.96707927  1
  Cl  Cl16  1  0.16539594  0.95744168  0.19978176  1
  Cl  Cl17  1  0.83461048  0.95744708  0.69978198  1
  Cl  Cl18  1  0.44662868  0.62707843  0.34460563  1
  Cl  Cl19  1  0.55336855  0.62706772  0.84460834  1
  Cl  Cl20  1  0.59515843  0.04862582  0.33065643  1
  Cl  Cl21  1  0.40485384  0.04861615  0.83065366  1
