# generated using pymatgen
data_Cr2PbS4
_symmetry_space_group_name_H-M   'P 1'
_cell_length_a   6.00295279
_cell_length_b   6.00300353
_cell_length_c   10.59684138
_cell_angle_alpha   89.99998857
_cell_angle_beta   89.99998457
_cell_angle_gamma   120.24758554
_symmetry_Int_Tables_number   1
_chemical_formula_structural   Cr2PbS4
_chemical_formula_sum   'Cr4 Pb2 S8'
_cell_volume   329.87673166
_cell_formula_units_Z   2
loop_
 _symmetry_equiv_pos_site_id
 _symmetry_equiv_pos_as_xyz
  1  'x, y, z'
loop_
 _atom_site_type_symbol
 _atom_site_label
 _atom_site_symmetry_multiplicity
 _atom_site_fract_x
 _atom_site_fract_y
 _atom_site_fract_z
 _atom_site_occupancy
  Cr  Cr0  1  0.76949494  0.23893877  0.49999996  1
  Cr  Cr1  1  0.23050471  0.76105995  0.49999997  1
  Cr  Cr2  1  0.76105583  0.23050750  0.00000004  1
  Cr  Cr3  1  0.23894185  0.76949420  -0.00000007  1
  Pb  Pb4  1  0.49999926  0.49999736  0.74999896  1
  Pb  Pb5  1  0.49999928  0.49999738  0.25000109  1
  S  S6  1  0.36323515  0.18528817  0.50000005  1
  S  S7  1  0.63677137  0.81471088  0.50000001  1
  S  S8  1  0.81470723  0.63676283  -0.00000001  1
  S  S9  1  0.18528272  0.36323382  0.00000008  1
  S  S10  1  0.50000343  0.00000420  0.83734995  1
  S  S11  1  0.00000041  0.50000043  0.66264996  1
  S  S12  1  0.50000339  0.00000409  0.16265003  1
  S  S13  1  0.00000044  0.50000043  0.33735000  1
