# generated using pymatgen
data_Cr4InCuS8
_symmetry_space_group_name_H-M   'P 1'
_cell_length_a   7.15407660
_cell_length_b   7.15407277
_cell_length_c   7.15408163
_cell_angle_alpha   59.99957614
_cell_angle_beta   59.99959696
_cell_angle_gamma   59.99954367
_symmetry_Int_Tables_number   1
_chemical_formula_structural   Cr4InCuS8
_chemical_formula_sum   'Cr4 In1 Cu1 S8'
_cell_volume   258.90570556
_cell_formula_units_Z   1
loop_
 _symmetry_equiv_pos_site_id
 _symmetry_equiv_pos_as_xyz
  1  'x, y, z'
loop_
 _atom_site_type_symbol
 _atom_site_label
 _atom_site_symmetry_multiplicity
 _atom_site_fract_x
 _atom_site_fract_y
 _atom_site_fract_z
 _atom_site_occupancy
  Cr  Cr0  1  0.63754224  0.12081898  0.12081900  1
  Cr  Cr1  1  0.12081895  0.63754233  0.12081896  1
  Cr  Cr2  1  0.12081906  0.12081901  0.63754209  1
  Cr  Cr3  1  0.12081927  0.12081920  0.12081927  1
  In  In4  1  0.49999965  0.49999992  0.49999935  1
  Cu  Cu5  1  0.74999976  0.74999974  0.74999967  1
  S  S6  1  0.34730290  0.88423216  0.88423215  1
  S  S7  1  0.88423227  0.34730293  0.88423208  1
  S  S8  1  0.88423202  0.88423226  0.34730283  1
  S  S9  1  0.88423223  0.88423245  0.88423243  1
  S  S10  1  0.92121047  0.35959632  0.35959640  1
  S  S11  1  0.35959637  0.92121029  0.35959649  1
  S  S12  1  0.35959634  0.35959613  0.92121080  1
  S  S13  1  0.35959648  0.35959628  0.35959648  1
