# generated using pymatgen
data_CrAgS2
_symmetry_space_group_name_H-M   'P 1'
_cell_length_a   5.70694925
_cell_length_b   5.70694993
_cell_length_c   6.61238936
_cell_angle_alpha   115.56543582
_cell_angle_beta   115.56544319
_cell_angle_gamma   90.00012339
_symmetry_Int_Tables_number   1
_chemical_formula_structural   CrAgS2
_chemical_formula_sum   'Cr2 Ag2 S4'
_cell_volume   170.60358175
_cell_formula_units_Z   2
loop_
 _symmetry_equiv_pos_site_id
 _symmetry_equiv_pos_as_xyz
  1  'x, y, z'
loop_
 _atom_site_type_symbol
 _atom_site_label
 _atom_site_symmetry_multiplicity
 _atom_site_fract_x
 _atom_site_fract_y
 _atom_site_fract_z
 _atom_site_occupancy
  Cr  Cr0  1  0.49999825  0.49999852  0.00000012  1
  Cr  Cr1  1  0.74999851  0.24999831  0.50000015  1
  Ag  Ag2  1  0.24999980  0.74999981  0.50000001  1
  Ag  Ag3  1  -0.00000020  -0.00000019  -0.00000000  1
  S  S4  1  0.83412233  0.87500073  0.24999865  1
  S  S5  1  0.62500203  0.16587934  0.75000119  1
  S  S6  1  0.41587986  0.37500163  0.25000216  1
  S  S7  1  0.12499942  0.58412185  0.74999772  1
