# generated using pymatgen
data_CrBiCl6
_symmetry_space_group_name_H-M   'P 1'
_cell_length_a   12.73134461
_cell_length_b   8.07163323
_cell_length_c   10.95902827
_cell_angle_alpha   82.54046695
_cell_angle_beta   90.00081383
_cell_angle_gamma   89.99985867
_symmetry_Int_Tables_number   1
_chemical_formula_structural   CrBiCl6
_chemical_formula_sum   'Cr4 Bi4 Cl24'
_cell_volume   1116.64873744
_cell_formula_units_Z   4
loop_
 _symmetry_equiv_pos_site_id
 _symmetry_equiv_pos_as_xyz
  1  'x, y, z'
loop_
 _atom_site_type_symbol
 _atom_site_label
 _atom_site_symmetry_multiplicity
 _atom_site_fract_x
 _atom_site_fract_y
 _atom_site_fract_z
 _atom_site_occupancy
  Cr  Cr0  1  0.76984155  0.50446883  0.72183947  1
  Cr  Cr1  1  0.73016002  0.50447128  0.22184439  1
  Cr  Cr2  1  0.26984107  0.49552979  0.77815507  1
  Cr  Cr3  1  0.23015955  0.49552965  0.27816262  1
  Bi  Bi4  1  0.96811915  0.18775906  0.34960660  1
  Bi  Bi5  1  0.53188059  0.18776060  0.84960770  1
  Bi  Bi6  1  0.03188048  0.81223978  0.65039304  1
  Bi  Bi7  1  0.46811888  0.81223744  0.15039183  1
  Cl  Cl8  1  0.43874470  0.00841791  0.30035718  1
  Cl  Cl9  1  0.90034250  0.50214549  0.18087154  1
  Cl  Cl10  1  0.64698343  0.70298094  0.30855824  1
  Cl  Cl11  1  0.12246948  0.48032630  0.43646488  1
  Cl  Cl12  1  0.87752664  0.51967312  0.56354022  1
  Cl  Cl13  1  0.06125797  0.00842093  0.80035670  1
  Cl  Cl14  1  0.37752911  0.48032822  0.93645812  1
  Cl  Cl15  1  0.09965722  0.49785574  0.81912699  1
  Cl  Cl16  1  0.14698191  0.29701911  0.19144097  1
  Cl  Cl17  1  0.40034790  0.49785116  0.31912987  1
  Cl  Cl18  1  0.59965390  0.50214677  0.68086991  1
  Cl  Cl19  1  0.62247484  0.51967132  0.06354624  1
  Cl  Cl20  1  0.62904984  0.99528208  0.04224799  1
  Cl  Cl21  1  0.73514499  0.25830679  0.33607962  1
  Cl  Cl22  1  0.23514672  0.74170203  0.16391717  1
  Cl  Cl23  1  0.37094997  0.00471562  0.95775141  1
  Cl  Cl24  1  0.26485504  0.74170038  0.66391670  1
  Cl  Cl25  1  0.93874267  0.99157924  0.19964213  1
  Cl  Cl26  1  0.35301501  0.29702068  0.69144226  1
  Cl  Cl27  1  0.76485326  0.25830244  0.83608036  1
  Cl  Cl28  1  0.12904889  0.00471687  0.45774898  1
  Cl  Cl29  1  0.85301892  0.70297848  0.80856015  1
  Cl  Cl30  1  0.56125387  0.99157986  0.69964198  1
  Cl  Cl31  1  0.87094995  0.99528212  0.54224967  1
