# generated using pymatgen
data_CrCuS2
_symmetry_space_group_name_H-M   'P 1'
_cell_length_a   5.29867679
_cell_length_b   5.29867805
_cell_length_c   6.46693147
_cell_angle_alpha   114.17349602
_cell_angle_beta   114.17348899
_cell_angle_gamma   90.02652705
_symmetry_Int_Tables_number   1
_chemical_formula_structural   CrCuS2
_chemical_formula_sum   'Cr2 Cu2 S4'
_cell_volume   148.00228299
_cell_formula_units_Z   2
loop_
 _symmetry_equiv_pos_site_id
 _symmetry_equiv_pos_as_xyz
  1  'x, y, z'
loop_
 _atom_site_type_symbol
 _atom_site_label
 _atom_site_symmetry_multiplicity
 _atom_site_fract_x
 _atom_site_fract_y
 _atom_site_fract_z
 _atom_site_occupancy
  Cr  Cr0  1  0.49999605  0.49999622  -0.00005210  1
  Cr  Cr1  1  0.74999629  0.24999602  0.49994793  1
  Cu  Cu2  1  0.24997068  0.74997694  0.49993109  1
  Cu  Cu3  1  -0.00002302  -0.00002930  -0.00006895  1
  S  S4  1  0.87262724  0.87503501  0.25006751  1
  S  S5  1  0.62502884  0.12737166  0.75005353  1
  S  S6  1  0.37737121  0.37502576  0.25005264  1
  S  S7  1  0.12503271  0.62262768  0.75006835  1
