# generated using pymatgen
data_CrCuSe2
_symmetry_space_group_name_H-M   'P 1'
_cell_length_a   5.60896716
_cell_length_b   5.60896845
_cell_length_c   6.83448091
_cell_angle_alpha   114.22545573
_cell_angle_beta   114.22543267
_cell_angle_gamma   90.00314005
_symmetry_Int_Tables_number   1
_chemical_formula_structural   CrCuSe2
_chemical_formula_sum   'Cr2 Cu2 Se4'
_cell_volume   175.10875949
_cell_formula_units_Z   2
loop_
 _symmetry_equiv_pos_site_id
 _symmetry_equiv_pos_as_xyz
  1  'x, y, z'
loop_
 _atom_site_type_symbol
 _atom_site_label
 _atom_site_symmetry_multiplicity
 _atom_site_fract_x
 _atom_site_fract_y
 _atom_site_fract_z
 _atom_site_occupancy
  Cr  Cr0  1  0.74999595  0.24999666  0.49999605  1
  Cr  Cr1  1  0.49999667  0.49999590  -0.00000394  1
  Cu  Cu2  1  0.24999889  0.74999832  0.49999729  1
  Cu  Cu3  1  -0.00000166  -0.00000115  -0.00000270  1
  Se  Se4  1  0.37452803  0.37500026  0.25000204  1
  Se  Se5  1  0.12500172  0.62547706  0.75000458  1
  Se  Se6  1  0.62500392  0.12452867  0.75000326  1
  Se  Se7  1  0.87547648  0.87500429  0.25000340  1
