# generated using pymatgen
data_CrCuBr4
_symmetry_space_group_name_H-M   'P 1'
_cell_length_a   6.11476454
_cell_length_b   6.11537075
_cell_length_c   10.34761147
_cell_angle_alpha   90.00000053
_cell_angle_beta   89.99995764
_cell_angle_gamma   90.00115705
_symmetry_Int_Tables_number   1
_chemical_formula_structural   CrCuBr4
_chemical_formula_sum   'Cr2 Cu2 Br8'
_cell_volume   386.93912353
_cell_formula_units_Z   2
loop_
 _symmetry_equiv_pos_site_id
 _symmetry_equiv_pos_as_xyz
  1  'x, y, z'
loop_
 _atom_site_type_symbol
 _atom_site_label
 _atom_site_symmetry_multiplicity
 _atom_site_fract_x
 _atom_site_fract_y
 _atom_site_fract_z
 _atom_site_occupancy
  Cr  Cr0  1  -0.00000033  0.50000051  0.74998644  1
  Cr  Cr1  1  0.50000022  0.00000022  0.25000504  1
  Cu  Cu2  1  0.50000019  0.50000001  -0.00002616  1
  Cu  Cu3  1  0.49999989  0.49999992  0.50002691  1
  Br  Br4  1  0.24873531  0.72174142  0.87196188  1
  Br  Br5  1  0.75126500  0.27825848  0.87196151  1
  Br  Br6  1  0.24876502  0.27823711  0.62804014  1
  Br  Br7  1  0.75123488  0.72176265  0.62803988  1
  Br  Br8  1  0.72169773  0.75127439  0.12800370  1
  Br  Br9  1  0.27830234  0.24872570  0.12800373  1
  Br  Br10  1  0.27829643  0.75125279  0.37199855  1
  Br  Br11  1  0.72170334  0.24874679  0.37199840  1
