# generated using pymatgen
data_CrInBr4
_symmetry_space_group_name_H-M   'P 1'
_cell_length_a   7.89234804
_cell_length_b   9.47359431
_cell_length_c   13.08610094
_cell_angle_alpha   76.05751371
_cell_angle_beta   89.99870987
_cell_angle_gamma   90.00158175
_symmetry_Int_Tables_number   1
_chemical_formula_structural   CrInBr4
_chemical_formula_sum   'Cr4 In4 Br16'
_cell_volume   949.60688971
_cell_formula_units_Z   4
loop_
 _symmetry_equiv_pos_site_id
 _symmetry_equiv_pos_as_xyz
  1  'x, y, z'
loop_
 _atom_site_type_symbol
 _atom_site_label
 _atom_site_symmetry_multiplicity
 _atom_site_fract_x
 _atom_site_fract_y
 _atom_site_fract_z
 _atom_site_occupancy
  Cr  Cr0  1  0.80715773  0.70027050  0.55337263  1
  Cr  Cr1  1  0.19284122  0.29972586  0.44662919  1
  Cr  Cr2  1  0.80714670  0.29972769  0.94662949  1
  Cr  Cr3  1  0.19286147  0.70027327  0.05337306  1
  In  In4  1  0.92655161  -0.00001054  0.75000724  1
  In  In5  1  0.07344189  -0.00000673  0.24999797  1
  In  In6  1  0.41080931  0.50001641  0.75000194  1
  In  In7  1  0.58918839  0.49999769  0.24999458  1
  Br  Br8  1  0.22583451  0.78125029  0.86952256  1
  Br  Br9  1  0.77418806  0.21873853  0.13046706  1
  Br  Br10  1  0.22580235  0.21876511  0.63047119  1
  Br  Br11  1  0.77417610  0.78120944  0.36954650  1
  Br  Br12  1  0.60101658  0.81879037  0.63262224  1
  Br  Br13  1  0.39902346  0.18123223  0.36736265  1
  Br  Br14  1  0.60095109  0.18124440  0.86736224  1
  Br  Br15  1  0.39902964  0.81880241  0.13264274  1
  Br  Br16  1  0.70158634  0.45713248  0.59327671  1
  Br  Br17  1  0.29837016  0.54291522  0.40668428  1
  Br  Br18  1  0.70164753  0.54291358  0.90668036  1
  Br  Br19  1  0.29843636  0.45708239  0.09328062  1
  Br  Br20  1  0.93141040  0.80596164  0.08662724  1
  Br  Br21  1  0.06856160  0.19400196  0.91342080  1
  Br  Br22  1  0.93142376  0.19399451  0.41340472  1
  Br  Br23  1  0.06854375  0.80597129  0.58662200  1
