# generated using pymatgen
data_CrPO4
_symmetry_space_group_name_H-M   'P 1'
_cell_length_a   5.33332683
_cell_length_b   7.21648324
_cell_length_c   6.39292526
_cell_angle_alpha   90.00045518
_cell_angle_beta   90.00000935
_cell_angle_gamma   90.00001263
_symmetry_Int_Tables_number   1
_chemical_formula_structural   CrPO4
_chemical_formula_sum   'Cr4 P4 O16'
_cell_volume   246.05003593
_cell_formula_units_Z   4
loop_
 _symmetry_equiv_pos_site_id
 _symmetry_equiv_pos_as_xyz
  1  'x, y, z'
loop_
 _atom_site_type_symbol
 _atom_site_label
 _atom_site_symmetry_multiplicity
 _atom_site_fract_x
 _atom_site_fract_y
 _atom_site_fract_z
 _atom_site_occupancy
  Cr  Cr0  1  0.25000029  0.74976135  0.75046217  1
  Cr  Cr1  1  0.74999989  0.25023656  0.24953752  1
  Cr  Cr2  1  0.74999993  0.24977213  0.74955956  1
  Cr  Cr3  1  0.25000019  0.75022656  0.25044066  1
  P  P4  1  0.24999953  0.36461940  0.50003753  1
  P  P5  1  0.75000016  0.63539193  0.49993249  1
  P  P6  1  0.74999962  0.86462866  -0.00001068  1
  P  P7  1  0.24999964  0.13536245  0.00004368  1
  O  O8  1  0.25000002  0.47672799  0.29761877  1
  O  O9  1  0.75000009  0.52327417  0.70238297  1
  O  O10  1  0.74999967  0.97672163  0.20235496  1
  O  O11  1  0.25000023  0.02326449  0.79762057  1
  O  O12  1  0.25000021  0.47638527  0.70275967  1
  O  O13  1  0.74999994  0.52363108  0.29726676  1
  O  O14  1  0.75000002  -0.02362889  0.79725077  1
  O  O15  1  0.24999987  0.02362970  0.20274367  1
  O  O16  1  0.00175157  0.25987045  -0.00020271  1
  O  O17  1  0.50177449  0.74013908  0.00019559  1
  O  O18  1  -0.00179336  0.75984186  0.50021078  1
  O  O19  1  0.49823422  0.24014637  0.49979567  1
  O  O20  1  -0.00177400  0.74013902  0.00019560  1
  O  O21  1  0.49824817  0.25987053  -0.00020272  1
  O  O22  1  0.00176581  0.24014653  0.49979581  1
  O  O23  1  0.50179381  0.75984169  0.50021092  1
