# generated using pymatgen
data_CrSeCl7
_symmetry_space_group_name_H-M   'P 1'
_cell_length_a   6.50394933
_cell_length_b   8.84958252
_cell_length_c   10.60881326
_cell_angle_alpha   85.40295669
_cell_angle_beta   75.86449715
_cell_angle_gamma   86.54702755
_symmetry_Int_Tables_number   1
_chemical_formula_structural   CrSeCl7
_chemical_formula_sum   'Cr2 Se2 Cl14'
_cell_volume   589.69794578
_cell_formula_units_Z   2
loop_
 _symmetry_equiv_pos_site_id
 _symmetry_equiv_pos_as_xyz
  1  'x, y, z'
loop_
 _atom_site_type_symbol
 _atom_site_label
 _atom_site_symmetry_multiplicity
 _atom_site_fract_x
 _atom_site_fract_y
 _atom_site_fract_z
 _atom_site_occupancy
  Cr  Cr0  1  0.48695160  0.39326175  0.90980921  1
  Cr  Cr1  1  0.24072971  0.92287691  0.54851549  1
  Se  Se2  1  0.98996784  0.01873985  0.00019603  1
  Se  Se3  1  0.75933038  0.57004522  0.52620044  1
  Cl  Cl4  1  0.85252042  0.80422074  0.97942284  1
  Cl  Cl5  1  0.68289498  0.17760514  0.87754662  1
  Cl  Cl6  1  0.15278400  0.33640900  0.96866844  1
  Cl  Cl7  1  0.26345661  0.92025703  0.07110532  1
  Cl  Cl8  1  0.78274658  0.07049261  0.18987451  1
  Cl  Cl9  1  0.25324290  0.02006964  0.73453764  1
  Cl  Cl10  1  0.59525659  0.36738694  0.50351042  1
  Cl  Cl11  1  -0.00696358  0.45602159  0.62346677  1
  Cl  Cl12  1  0.43201730  0.74583611  0.42412600  1
  Cl  Cl13  1  0.90743003  0.86367863  0.58218383  1
  Cl  Cl14  1  0.96133445  0.58888183  0.32795397  1
  Cl  Cl15  1  0.46366695  0.60105723  0.77601798  1
  Cl  Cl16  1  0.56777844  0.48369703  0.07354040  1
  Cl  Cl17  1  0.29195680  0.11995776  0.41152109  1
