# generated using pymatgen
data_CrTeCl7
_symmetry_space_group_name_H-M   'P 1'
_cell_length_a   13.07897166
_cell_length_b   6.77224009
_cell_length_c   14.67688283
_cell_angle_alpha   76.38643404
_cell_angle_beta   89.99995587
_cell_angle_gamma   90.00067137
_symmetry_Int_Tables_number   1
_chemical_formula_structural   CrTeCl7
_chemical_formula_sum   'Cr4 Te4 Cl28'
_cell_volume   1263.46647340
_cell_formula_units_Z   4
loop_
 _symmetry_equiv_pos_site_id
 _symmetry_equiv_pos_as_xyz
  1  'x, y, z'
loop_
 _atom_site_type_symbol
 _atom_site_label
 _atom_site_symmetry_multiplicity
 _atom_site_fract_x
 _atom_site_fract_y
 _atom_site_fract_z
 _atom_site_occupancy
  Cr  Cr0  1  0.03630932  0.62468024  0.29038437  1
  Cr  Cr1  1  0.53630889  0.37531694  0.20961107  1
  Cr  Cr2  1  0.96369124  0.37531716  0.70961472  1
  Cr  Cr3  1  0.46368820  0.62468272  0.79039028  1
  Te  Te4  1  0.74855078  0.92221007  0.60770227  1
  Te  Te5  1  0.75145020  0.92220819  0.10769804  1
  Te  Te6  1  0.25145271  0.07779121  0.39230175  1
  Te  Te7  1  0.24854918  0.07778826  0.89230316  1
  Cl  Cl8  1  0.91090130  0.05930045  0.72919595  1
  Cl  Cl9  1  0.12248883  0.43110727  0.41135401  1
  Cl  Cl10  1  0.84452427  0.10473217  0.47941446  1
  Cl  Cl11  1  0.62248695  0.56889706  0.08864012  1
  Cl  Cl12  1  0.37751512  0.43110632  0.91135712  1
  Cl  Cl13  1  0.86944133  0.80597504  0.01216674  1
  Cl  Cl14  1  0.58909630  0.05930784  0.22919315  1
  Cl  Cl15  1  0.15547595  0.89527321  0.52058878  1
  Cl  Cl16  1  0.35138079  0.79911331  0.37683518  1
  Cl  Cl17  1  0.13055488  0.19401935  0.98783231  1
  Cl  Cl18  1  0.63055678  0.80597015  0.51217080  1
  Cl  Cl19  1  0.87751537  0.56890608  0.58863834  1
  Cl  Cl20  1  0.90664405  0.49623369  0.82302815  1
  Cl  Cl21  1  0.65547362  0.10472096  0.97941030  1
  Cl  Cl22  1  0.13248868  0.32969301  0.73111736  1
  Cl  Cl23  1  0.08910225  0.94069397  0.27080533  1
  Cl  Cl24  1  0.59335082  0.49623353  0.32302768  1
  Cl  Cl25  1  0.09335261  0.50376277  0.17696953  1
  Cl  Cl26  1  0.36751107  0.32969175  0.23111509  1
  Cl  Cl27  1  0.41090566  0.94068947  0.77080626  1
  Cl  Cl28  1  0.36944480  0.19403491  0.48782937  1
  Cl  Cl29  1  0.64862243  0.20088311  0.62317163  1
  Cl  Cl30  1  0.34452045  0.89527843  0.02058924  1
  Cl  Cl31  1  0.14862195  0.79911106  0.87683162  1
  Cl  Cl32  1  0.86751165  0.67030747  0.26888095  1
  Cl  Cl33  1  0.63248444  0.67030423  0.76888755  1
  Cl  Cl34  1  0.40664724  0.50377035  0.67697284  1
  Cl  Cl35  1  0.85137993  0.20088826  0.12316447  1
