# generated using pymatgen
data_Cs2CO3
_symmetry_space_group_name_H-M   'P 1'
_cell_length_a   3.75765865
_cell_length_b   5.54836205
_cell_length_c   11.22369397
_cell_angle_alpha   90.00251659
_cell_angle_beta   90.00149057
_cell_angle_gamma   95.75709019
_symmetry_Int_Tables_number   1
_chemical_formula_structural   Cs2CO3
_chemical_formula_sum   'Cs4 C2 O6'
_cell_volume   232.82084369
_cell_formula_units_Z   2
loop_
 _symmetry_equiv_pos_site_id
 _symmetry_equiv_pos_as_xyz
  1  'x, y, z'
loop_
 _atom_site_type_symbol
 _atom_site_label
 _atom_site_symmetry_multiplicity
 _atom_site_fract_x
 _atom_site_fract_y
 _atom_site_fract_z
 _atom_site_occupancy
  Cs  Cs0  1  0.34004737  0.24197092  0.40952387  1
  Cs  Cs1  1  0.66005335  0.75802732  0.90962295  1
  Cs  Cs2  1  0.65994538  0.75801720  0.59047972  1
  Cs  Cs3  1  0.33993808  0.24195551  0.09037188  1
  C  C4  1  0.89309924  0.75856009  0.24997589  1
  C  C5  1  0.10686729  0.24149724  0.75002772  1
  O  O6  1  0.06605168  0.35127127  0.85100563  1
  O  O7  1  0.93430654  0.64905751  0.35103599  1
  O  O8  1  0.81300939  -0.01751910  0.24990909  1
  O  O9  1  0.18699174  0.01760486  0.75007736  1
  O  O10  1  0.06572716  0.35086445  0.64892504  1
  O  O11  1  0.93396278  0.64869273  0.14904486  1
