# generated using pymatgen
data_Cs2PSe3
_symmetry_space_group_name_H-M   'P 1'
_cell_length_a   8.10968807
_cell_length_b   13.73213921
_cell_length_c   18.14035850
_cell_angle_alpha   90.00000156
_cell_angle_beta   89.99999948
_cell_angle_gamma   89.99999671
_symmetry_Int_Tables_number   1
_chemical_formula_structural   Cs2PSe3
_chemical_formula_sum   'Cs16 P8 Se24'
_cell_volume   2020.17137442
_cell_formula_units_Z   8
loop_
 _symmetry_equiv_pos_site_id
 _symmetry_equiv_pos_as_xyz
  1  'x, y, z'
loop_
 _atom_site_type_symbol
 _atom_site_label
 _atom_site_symmetry_multiplicity
 _atom_site_fract_x
 _atom_site_fract_y
 _atom_site_fract_z
 _atom_site_occupancy
  Cs  Cs0  1  0.90810439  0.34223040  0.62788755  1
  Cs  Cs1  1  0.40810463  0.15776961  0.37211242  1
  Cs  Cs2  1  0.09189537  0.84223041  0.87211244  1
  Cs  Cs3  1  0.59189555  0.65776961  0.12788759  1
  Cs  Cs4  1  0.55002886  0.34861369  0.12125474  1
  Cs  Cs5  1  0.05002888  0.15138631  0.87874523  1
  Cs  Cs6  1  0.44997115  0.84861367  0.37874525  1
  Cs  Cs7  1  -0.05002880  0.65138630  0.62125476  1
  Cs  Cs8  1  0.60714598  0.70313114  0.87187003  1
  Cs  Cs9  1  0.10714612  0.79686889  0.12812990  1
  Cs  Cs10  1  0.39285387  0.20313117  0.62812993  1
  Cs  Cs11  1  0.89285402  0.29686886  0.37187008  1
  Cs  Cs12  1  0.59775777  0.33256859  0.87808253  1
  Cs  Cs13  1  0.09775786  0.16743140  0.12191746  1
  Cs  Cs14  1  0.40224214  0.83256862  0.62191747  1
  Cs  Cs15  1  0.90224224  0.66743139  0.37808257  1
  P  P16  1  0.09901200  0.50202328  0.81765009  1
  P  P17  1  0.59901212  -0.00202326  0.18234994  1
  P  P18  1  0.90098786  0.00202328  0.68234988  1
  P  P19  1  0.40098802  0.49797672  0.31765010  1
  P  P20  1  0.10124658  0.50518860  0.94867224  1
  P  P21  1  0.60124668  -0.00518860  0.05132773  1
  P  P22  1  0.89875330  0.00518860  0.55132776  1
  P  P23  1  0.39875344  0.49481138  0.44867227  1
  Se  Se24  1  0.20878508  0.36203166  0.78287455  1
  Se  Se25  1  0.70878522  0.13796838  0.21712546  1
  Se  Se26  1  0.79121484  0.86203165  0.71712544  1
  Se  Se27  1  0.29121488  0.63796834  0.28287454  1
  Se  Se28  1  0.83774064  0.51145916  0.78254620  1
  Se  Se29  1  0.33774070  -0.01145917  0.21745381  1
  Se  Se30  1  0.16225919  0.01145917  0.71745379  1
  Se  Se31  1  0.66225941  0.48854083  0.28254620  1
  Se  Se32  1  0.13566976  0.48158812  0.47868780  1
  Se  Se33  1  0.63566965  0.01841183  0.52131220  1
  Se  Se34  1  0.86433038  0.98158819  0.02131221  1
  Se  Se35  1  0.36433029  0.51841185  -0.02131221  1
  Se  Se36  1  0.51612365  0.63003241  0.48801382  1
  Se  Se37  1  0.01612361  0.86996760  0.51198620  1
  Se  Se38  1  0.48387634  0.13003243  0.01198620  1
  Se  Se39  1  0.98387630  0.36996759  -0.01198619  1
  Se  Se40  1  0.54312947  0.36586031  0.48195667  1
  Se  Se41  1  0.04312928  0.13413969  0.51804334  1
  Se  Se42  1  0.45687069  0.86586028  0.01804334  1
  Se  Se43  1  0.95687056  0.63413971  0.98195666  1
  Se  Se44  1  0.25825941  0.37234626  0.27650287  1
  Se  Se45  1  0.75825924  0.12765368  0.72349715  1
  Se  Se46  1  0.74174079  0.87234626  0.22349714  1
  Se  Se47  1  0.24174059  0.62765371  0.77650286  1
