# generated using pymatgen
data_CsAlSe2
_symmetry_space_group_name_H-M   'P 1'
_cell_length_a   7.94729347
_cell_length_b   7.94729297
_cell_length_c   17.03690683
_cell_angle_alpha   83.29839913
_cell_angle_beta   83.29839887
_cell_angle_gamma   89.99818308
_symmetry_Int_Tables_number   1
_chemical_formula_structural   CsAlSe2
_chemical_formula_sum   'Cs8 Al8 Se16'
_cell_volume   1061.28718421
_cell_formula_units_Z   8
loop_
 _symmetry_equiv_pos_site_id
 _symmetry_equiv_pos_as_xyz
  1  'x, y, z'
loop_
 _atom_site_type_symbol
 _atom_site_label
 _atom_site_symmetry_multiplicity
 _atom_site_fract_x
 _atom_site_fract_y
 _atom_site_fract_z
 _atom_site_occupancy
  Cs  Cs0  1  0.65164868  0.77492413  0.89761861  1
  Cs  Cs1  1  0.22507593  0.34835133  0.60238142  1
  Cs  Cs2  1  0.34835137  0.22507587  0.10238139  1
  Cs  Cs3  1  0.77492408  0.65164864  0.39761861  1
  Cs  Cs4  1  0.22475284  0.84976905  0.60362951  1
  Cs  Cs5  1  0.15023094  0.77524721  0.89637048  1
  Cs  Cs6  1  0.77524715  0.15023097  0.39637048  1
  Cs  Cs7  1  0.84976909  0.22475282  0.10362952  1
  Al  Al8  1  0.42278857  0.29312020  0.82824334  1
  Al  Al9  1  0.70687985  0.57721145  0.67175665  1
  Al  Al10  1  0.57721142  0.70687980  0.17175665  1
  Al  Al11  1  0.29312014  0.42278855  0.32824335  1
  Al  Al12  1  0.70675849  0.08606941  0.67229129  1
  Al  Al13  1  0.91393062  0.29324156  0.82770870  1
  Al  Al14  1  0.29324150  0.91393058  0.32770871  1
  Al  Al15  1  0.08606939  0.70675844  0.17229129  1
  Se  Se16  1  0.64682517  0.27173055  0.91625983  1
  Se  Se17  1  0.72826947  0.35317486  0.58374018  1
  Se  Se18  1  0.35317484  0.72826946  0.08374016  1
  Se  Se19  1  0.27173050  0.64682514  0.41625983  1
  Se  Se20  1  0.43439300  0.05857581  0.75072531  1
  Se  Se21  1  0.94142422  0.56560703  0.74927470  1
  Se  Se22  1  0.56560700  0.94142418  0.24927470  1
  Se  Se23  1  0.05857578  0.43439297  0.25072530  1
  Se  Se24  1  0.43431562  0.56568441  0.75000001  1
  Se  Se25  1  0.56568438  0.43431561  0.24999999  1
  Se  Se26  1  0.94101521  0.05898482  0.75000000  1
  Se  Se27  1  0.05898478  0.94101517  0.25000000  1
  Se  Se28  1  0.72746941  0.85311040  0.58832662  1
  Se  Se29  1  0.14688961  0.27253062  0.91167339  1
  Se  Se30  1  0.27253059  0.14688959  0.41167338  1
  Se  Se31  1  0.85311039  0.72746937  0.08832661  1
