# generated using pymatgen
data_CsAlSi3O8
_symmetry_space_group_name_H-M   'P 1'
_cell_length_a   7.39544191
_cell_length_b   7.88232031
_cell_length_c   8.12405461
_cell_angle_alpha   109.66527852
_cell_angle_beta   104.60901523
_cell_angle_gamma   104.03195226
_symmetry_Int_Tables_number   1
_chemical_formula_structural   CsAlSi3O8
_chemical_formula_sum   'Cs2 Al2 Si6 O16'
_cell_volume   402.73224751
_cell_formula_units_Z   2
loop_
 _symmetry_equiv_pos_site_id
 _symmetry_equiv_pos_as_xyz
  1  'x, y, z'
loop_
 _atom_site_type_symbol
 _atom_site_label
 _atom_site_symmetry_multiplicity
 _atom_site_fract_x
 _atom_site_fract_y
 _atom_site_fract_z
 _atom_site_occupancy
  Cs  Cs0  1  0.15176885  0.30518476  0.30120992  1
  Cs  Cs1  1  0.84823117  0.69481524  0.69879009  1
  Al  Al2  1  0.21887514  0.81694848  0.21165259  1
  Al  Al3  1  0.78112486  0.18305151  0.78834741  1
  Si  Si4  1  0.34585928  0.61433241  0.86170432  1
  Si  Si5  1  0.35515224  0.85443199  0.61873043  1
  Si  Si6  1  0.65414069  0.38566760  0.13829572  1
  Si  Si7  1  0.64484769  0.14556796  0.38126949  1
  Si  Si8  1  0.23354851  0.20884697  0.82479694  1
  Si  Si9  1  0.76645153  0.79115304  0.17520307  1
  O  O10  1  0.22857652  0.66187778  0.00270200  1
  O  O11  1  0.24525711  0.01197585  0.68157877  1
  O  O12  1  0.77142349  0.33812219  -0.00270204  1
  O  O13  1  0.75474290  -0.01197584  0.31842124  1
  O  O14  1  0.26231402  0.73846876  0.39189852  1
  O  O15  1  0.27980916  0.37755130  0.74712060  1
  O  O16  1  0.73768599  0.26153126  0.60810152  1
  O  O17  1  0.72019084  0.62244870  0.25287940  1
  O  O18  1  0.98207294  0.84027778  0.15513035  1
  O  O19  1  0.01792702  0.15972222  0.84486966  1
  O  O20  1  0.28552051  0.68881223  0.69674436  1
  O  O21  1  0.71447948  0.31118777  0.30325564  1
  O  O22  1  0.40406786  0.04541259  0.29245755  1
  O  O23  1  0.40884731  0.29066372  0.03378804  1
  O  O24  1  0.59593219  0.95458742  0.70754245  1
  O  O25  1  0.59115269  0.70933629  0.96621197  1
