# generated using pymatgen
data_CsHg2AsO4
_symmetry_space_group_name_H-M   'P 1'
_cell_length_a   6.30169397
_cell_length_b   9.58316568
_cell_length_c   11.38433475
_cell_angle_alpha   90.00026172
_cell_angle_beta   89.99996047
_cell_angle_gamma   89.99967901
_symmetry_Int_Tables_number   1
_chemical_formula_structural   CsHg2AsO4
_chemical_formula_sum   'Cs4 Hg8 As4 O16'
_cell_volume   687.50199489
_cell_formula_units_Z   4
loop_
 _symmetry_equiv_pos_site_id
 _symmetry_equiv_pos_as_xyz
  1  'x, y, z'
loop_
 _atom_site_type_symbol
 _atom_site_label
 _atom_site_symmetry_multiplicity
 _atom_site_fract_x
 _atom_site_fract_y
 _atom_site_fract_z
 _atom_site_occupancy
  Cs  Cs0  1  0.49999380  0.06046778  0.83919920  1
  Cs  Cs1  1  0.50000595  0.43953116  0.33920215  1
  Cs  Cs2  1  0.49999372  0.56046574  0.66079899  1
  Cs  Cs3  1  0.50000692  0.93953460  0.16080047  1
  Hg  Hg4  1  0.28945961  0.80380163  0.43005554  1
  Hg  Hg5  1  0.71054526  0.19619982  0.56994358  1
  Hg  Hg6  1  0.28945483  0.30379980  0.06994428  1
  Hg  Hg7  1  0.28945886  0.19619645  0.56993668  1
  Hg  Hg8  1  0.71053924  0.30380477  0.06993583  1
  Hg  Hg9  1  0.71054317  0.69619916  0.93005498  1
  Hg  Hg10  1  0.28946113  0.69619747  0.93005974  1
  Hg  Hg11  1  0.71053772  0.80380232  0.43005879  1
  As  As12  1  0.00000480  0.86933820  0.67059095  1
  As  As13  1  -0.00000601  0.36933375  0.82941757  1
  As  As14  1  0.00000269  0.13064809  0.32944302  1
  As  As15  1  -0.00000215  0.63064881  0.17057395  1
  O  O16  1  -0.00000011  0.74987239  0.05063513  1
  O  O17  1  0.23075828  0.53832673  0.15658423  1
  O  O18  1  0.00000062  0.77419349  0.79998495  1
  O  O19  1  0.00000123  0.27419052  0.70000726  1
  O  O20  1  0.00000005  0.25012366  0.94936684  1
  O  O21  1  0.23076564  0.46167826  0.84341974  1
  O  O22  1  -0.00000155  0.22582105  0.19999232  1
  O  O23  1  0.23075596  0.03832881  0.34341920  1
  O  O24  1  -0.00000042  0.72581680  0.29999738  1
  O  O25  1  0.23075128  -0.03832544  0.65658079  1
  O  O26  1  0.76923222  -0.03832288  0.65658084  1
  O  O27  1  -0.00000039  0.24987204  0.44936186  1
  O  O28  1  0.76925475  0.53832848  0.15658456  1
  O  O29  1  0.00000041  0.75012371  0.55063123  1
  O  O30  1  0.76923428  0.46167535  0.84342008  1
  O  O31  1  0.76924821  0.03832743  0.34341888  1
