# generated using pymatgen
data_CsSbO3
_symmetry_space_group_name_H-M   'P 1'
_cell_length_a   7.75659766
_cell_length_b   7.75659749
_cell_length_c   7.75659749
_cell_angle_alpha   59.99994960
_cell_angle_beta   59.99994931
_cell_angle_gamma   59.99994897
_symmetry_Int_Tables_number   1
_chemical_formula_structural   CsSbO3
_chemical_formula_sum   'Cs4 Sb4 O12'
_cell_volume   329.98810002
_cell_formula_units_Z   4
loop_
 _symmetry_equiv_pos_site_id
 _symmetry_equiv_pos_as_xyz
  1  'x, y, z'
loop_
 _atom_site_type_symbol
 _atom_site_label
 _atom_site_symmetry_multiplicity
 _atom_site_fract_x
 _atom_site_fract_y
 _atom_site_fract_z
 _atom_site_occupancy
  Cs  Cs0  1  0.62499998  0.12500000  0.12500001  1
  Cs  Cs1  1  0.12499999  0.62499997  0.12500003  1
  Cs  Cs2  1  0.12499997  0.12499999  0.62500004  1
  Cs  Cs3  1  0.12500001  0.12500003  0.12499997  1
  Sb  Sb4  1  0.12500001  0.62500000  0.62500000  1
  Sb  Sb5  1  0.62500002  0.12500000  0.62499998  1
  Sb  Sb6  1  0.62499999  0.62500001  0.12500000  1
  Sb  Sb7  1  0.62499999  0.62500000  0.62500001  1
  O  O8  1  0.68733655  0.68733651  0.31266341  1
  O  O9  1  0.31266350  0.31266351  0.68733653  1
  O  O10  1  0.68733652  0.31266341  0.68733652  1
  O  O11  1  0.31266351  0.68733658  0.31266348  1
  O  O12  1  0.31266339  0.68733651  0.68733657  1
  O  O13  1  0.68733664  0.31266346  0.31266345  1
  O  O14  1  0.56266345  0.56266347  0.93733660  1
  O  O15  1  0.93733652  0.93733652  0.56266339  1
  O  O16  1  0.56266345  0.93733660  0.56266349  1
  O  O17  1  0.93733649  0.56266344  0.93733650  1
  O  O18  1  0.93733661  0.56266344  0.56266350  1
  O  O19  1  0.56266339  0.93733654  0.93733654  1
