# generated using pymatgen
data_Cu2SnHgS4
_symmetry_space_group_name_H-M   'P 1'
_cell_length_a   6.50343530
_cell_length_b   6.80788982
_cell_length_c   7.92881436
_cell_angle_alpha   89.99990498
_cell_angle_beta   90.00014376
_cell_angle_gamma   90.00008504
_symmetry_Int_Tables_number   1
_chemical_formula_structural   Cu2SnHgS4
_chemical_formula_sum   'Cu4 Sn2 Hg2 S8'
_cell_volume   351.04564700
_cell_formula_units_Z   2
loop_
 _symmetry_equiv_pos_site_id
 _symmetry_equiv_pos_as_xyz
  1  'x, y, z'
loop_
 _atom_site_type_symbol
 _atom_site_label
 _atom_site_symmetry_multiplicity
 _atom_site_fract_x
 _atom_site_fract_y
 _atom_site_fract_z
 _atom_site_occupancy
  Cu  Cu0  1  0.50615916  0.83435989  0.74892434  1
  Cu  Cu1  1  0.00614139  0.16563982  0.75108148  1
  Cu  Cu2  1  0.00614878  0.16563792  0.24892048  1
  Cu  Cu3  1  0.50614653  0.83436704  0.25108489  1
  Sn  Sn4  1  0.00695063  0.67430218  -0.00000095  1
  Sn  Sn5  1  0.50694780  0.32569336  0.49999983  1
  Hg  Hg6  1  0.51044169  0.33958637  -0.00000304  1
  Hg  Hg7  1  0.01043283  0.66041967  0.49999621  1
  S  S8  1  0.91003524  0.32161957  0.00000085  1
  S  S9  1  0.41003002  0.67837432  0.50000203  1
  S  S10  1  0.86266206  0.85379862  0.75715712  1
  S  S11  1  0.36265882  0.14619709  0.74283980  1
  S  S12  1  0.36265848  0.14620111  0.25715456  1
  S  S13  1  0.86265625  0.85380140  0.24283944  1
  S  S14  1  0.38746584  0.70312656  0.00000309  1
  S  S15  1  0.88746450  0.29687508  0.49999986  1
