# generated using pymatgen
data_CuAs3H2O9
_symmetry_space_group_name_H-M   'P 1'
_cell_length_a   7.24465874
_cell_length_b   7.81233657
_cell_length_c   7.64685525
_cell_angle_alpha   109.57496944
_cell_angle_beta   102.79693842
_cell_angle_gamma   107.01142503
_symmetry_Int_Tables_number   1
_chemical_formula_structural   CuAs3H2O9
_chemical_formula_sum   'Cu2 As6 H4 O18'
_cell_volume   364.59505067
_cell_formula_units_Z   2
loop_
 _symmetry_equiv_pos_site_id
 _symmetry_equiv_pos_as_xyz
  1  'x, y, z'
loop_
 _atom_site_type_symbol
 _atom_site_label
 _atom_site_symmetry_multiplicity
 _atom_site_fract_x
 _atom_site_fract_y
 _atom_site_fract_z
 _atom_site_occupancy
  Cu  Cu0  1  0.35070369  0.83774470  0.06187342  1
  Cu  Cu1  1  0.64929523  0.16230143  0.93814214  1
  As  As2  1  0.38187570  0.33634205  0.16842765  1
  As  As3  1  0.19656031  0.82396594  0.42240113  1
  As  As4  1  0.15727124  0.43740369  0.48799359  1
  As  As5  1  0.84272685  0.56259342  0.51200787  1
  As  As6  1  0.80344164  0.17603167  0.57760647  1
  As  As7  1  0.61812136  0.66364744  0.83157401  1
  H  H8  1  0.88240095  0.65294683  0.05242455  1
  H  H9  1  0.66395212  0.83248719  0.39747387  1
  H  H10  1  0.33603253  0.16751330  0.60250340  1
  H  H11  1  0.11761972  0.34707348  0.94758145  1
  O  O12  1  0.27055873  0.43267785  0.01773905  1
  O  O13  1  0.42942446  0.13646468  0.05049982  1
  O  O14  1  0.14112833  0.79714070  0.18338099  1
  O  O15  1  0.20800286  0.26669380  0.28383905  1
  O  O16  1  0.91787929  0.41485365  0.31495875  1
  O  O17  1  0.60725829  0.54586589  0.33326377  1
  O  O18  1  0.62202159  0.94100787  0.39152844  1
  O  O19  1  0.02388403  0.20353839  0.51244309  1
  O  O20  1  0.68371768  0.32830737  0.52708282  1
  O  O21  1  0.31629132  0.67169323  0.47292555  1
  O  O22  1  0.97610867  0.79645572  0.48754881  1
  O  O23  1  0.37797308  0.05899464  0.60846780  1
  O  O24  1  0.39274058  0.45412072  0.66672861  1
  O  O25  1  0.08212367  0.58515091  0.68504452  1
  O  O26  1  0.79198173  0.73329475  0.71614912  1
  O  O27  1  0.85886054  0.20284548  0.81662184  1
  O  O28  1  0.57058047  0.86352309  0.94951189  1
  O  O29  1  0.72946335  0.56732011  0.98225652  1
