# generated using pymatgen
data_CuB5S8
_symmetry_space_group_name_H-M   'P 1'
_cell_length_a   6.41372776
_cell_length_b   6.41372795
_cell_length_c   6.41372564
_cell_angle_alpha   59.99999137
_cell_angle_beta   59.99999192
_cell_angle_gamma   59.99994890
_symmetry_Int_Tables_number   1
_chemical_formula_structural   CuB5S8
_chemical_formula_sum   'Cu1 B5 S8'
_cell_volume   186.55900392
_cell_formula_units_Z   1
loop_
 _symmetry_equiv_pos_site_id
 _symmetry_equiv_pos_as_xyz
  1  'x, y, z'
loop_
 _atom_site_type_symbol
 _atom_site_label
 _atom_site_symmetry_multiplicity
 _atom_site_fract_x
 _atom_site_fract_y
 _atom_site_fract_z
 _atom_site_occupancy
  Cu  Cu0  1  0.12499949  0.12499962  0.12499949  1
  B  B1  1  0.04377292  0.48540955  0.48540919  1
  B  B2  1  0.48540917  0.48540923  0.04377302  1
  B  B3  1  0.48540950  0.04377300  0.48540927  1
  B  B4  1  0.48540949  0.48540947  0.48540973  1
  B  B5  1  0.87500002  0.87500004  0.87500005  1
  S  S6  1  0.26454235  0.26454225  0.26454223  1
  S  S7  1  0.26454237  0.70637394  0.26454239  1
  S  S8  1  0.26454242  0.26454247  0.70637383  1
  S  S9  1  0.70637398  0.26454231  0.26454242  1
  S  S10  1  0.25706645  0.74764462  0.74764479  1
  S  S11  1  0.74764479  0.74764461  0.25706650  1
  S  S12  1  0.74764462  0.25706648  0.74764467  1
  S  S13  1  0.74764446  0.74764445  0.74764443  1
