# generated using pymatgen
data_CuBBr4
_symmetry_space_group_name_H-M   'P 1'
_cell_length_a   5.80974709
_cell_length_b   5.80974629
_cell_length_c   9.72452606
_cell_angle_alpha   89.99995501
_cell_angle_beta   89.99999697
_cell_angle_gamma   90.00002722
_symmetry_Int_Tables_number   1
_chemical_formula_structural   CuBBr4
_chemical_formula_sum   'Cu2 B2 Br8'
_cell_volume   328.23345098
_cell_formula_units_Z   2
loop_
 _symmetry_equiv_pos_site_id
 _symmetry_equiv_pos_as_xyz
  1  'x, y, z'
loop_
 _atom_site_type_symbol
 _atom_site_label
 _atom_site_symmetry_multiplicity
 _atom_site_fract_x
 _atom_site_fract_y
 _atom_site_fract_z
 _atom_site_occupancy
  Cu  Cu0  1  0.49999989  0.50000005  0.00000004  1
  Cu  Cu1  1  0.50000006  0.49999997  0.50000009  1
  B  B2  1  -0.00000020  0.49999993  0.75000102  1
  B  B3  1  0.49999981  0.00000006  0.24999892  1
  Br  Br4  1  0.20096277  0.70963264  0.86785298  1
  Br  Br5  1  0.79903726  0.29036760  0.86785289  1
  Br  Br6  1  0.20096243  0.29036556  0.63214707  1
  Br  Br7  1  0.79903765  0.70963424  0.63214704  1
  Br  Br8  1  0.70963279  0.79903709  0.13214698  1
  Br  Br9  1  0.29036740  0.20096273  0.13214710  1
  Br  Br10  1  0.29036590  0.79903765  0.36785294  1
  Br  Br11  1  0.70963424  0.20096248  0.36785291  1
