# generated using pymatgen
data_CuBCl4
_symmetry_space_group_name_H-M   'P 1'
_cell_length_a   5.44979054
_cell_length_b   5.44979160
_cell_length_c   9.17152481
_cell_angle_alpha   89.99999337
_cell_angle_beta   89.99999258
_cell_angle_gamma   89.99998696
_symmetry_Int_Tables_number   1
_chemical_formula_structural   CuBCl4
_chemical_formula_sum   'Cu2 B2 Cl8'
_cell_volume   272.39632942
_cell_formula_units_Z   2
loop_
 _symmetry_equiv_pos_site_id
 _symmetry_equiv_pos_as_xyz
  1  'x, y, z'
loop_
 _atom_site_type_symbol
 _atom_site_label
 _atom_site_symmetry_multiplicity
 _atom_site_fract_x
 _atom_site_fract_y
 _atom_site_fract_z
 _atom_site_occupancy
  Cu  Cu0  1  0.00000001  0.00000001  0.00000011  1
  Cu  Cu1  1  0.00000007  -0.00000011  0.49999988  1
  B  B2  1  -0.00000003  0.49999990  0.25000004  1
  B  B3  1  0.50000005  0.00000020  0.75000003  1
  Cl  Cl4  1  0.30389462  0.20329527  0.86515565  1
  Cl  Cl5  1  0.69610547  0.79670476  0.86515571  1
  Cl  Cl6  1  0.20329472  0.30389386  0.36515582  1
  Cl  Cl7  1  0.30389384  0.79670526  0.63484418  1
  Cl  Cl8  1  0.69610609  0.20329461  0.63484416  1
  Cl  Cl9  1  0.20329546  0.69610548  0.13484428  1
  Cl  Cl10  1  0.79670457  0.30389455  0.13484430  1
  Cl  Cl11  1  0.79670513  0.69610620  0.36515586  1
