# generated using pymatgen
data_CuBF4
_symmetry_space_group_name_H-M   'P 1'
_cell_length_a   5.81720299
_cell_length_b   6.59767030
_cell_length_c   7.48122153
_cell_angle_alpha   90.00015639
_cell_angle_beta   90.00000668
_cell_angle_gamma   90.00000159
_symmetry_Int_Tables_number   1
_chemical_formula_structural   CuBF4
_chemical_formula_sum   'Cu4 B4 F16'
_cell_volume   287.12918803
_cell_formula_units_Z   4
loop_
 _symmetry_equiv_pos_site_id
 _symmetry_equiv_pos_as_xyz
  1  'x, y, z'
loop_
 _atom_site_type_symbol
 _atom_site_label
 _atom_site_symmetry_multiplicity
 _atom_site_fract_x
 _atom_site_fract_y
 _atom_site_fract_z
 _atom_site_occupancy
  Cu  Cu0  1  0.24999997  0.24410935  0.24212796  1
  Cu  Cu1  1  0.74999993  0.75588710  0.75787525  1
  Cu  Cu2  1  0.75000005  0.74412568  0.25786575  1
  Cu  Cu3  1  0.24999993  0.25588940  0.74211066  1
  B  B4  1  0.75000027  0.16135422  0.49981389  1
  B  B5  1  0.25000013  0.83864529  0.50018463  1
  B  B6  1  0.25000029  0.66134750  0.00018641  1
  B  B7  1  0.75000049  0.33864874  0.99981597  1
  F  F8  1  0.75000021  0.46250111  0.15810547  1
  F  F9  1  0.24999958  0.53750199  0.84189361  1
  F  F10  1  0.24999945  0.96249930  0.34189866  1
  F  F11  1  0.75000011  0.03750116  0.65810198  1
  F  F12  1  0.74999946  0.46705780  0.84425373  1
  F  F13  1  0.25000030  0.53293767  0.15575085  1
  F  F14  1  0.25000020  0.96705736  0.65574653  1
  F  F15  1  0.74999933  0.03294629  0.34425648  1
  F  F16  1  0.55107630  0.21924369  0.99861620  1
  F  F17  1  0.05107678  0.78075488  0.00138664  1
  F  F18  1  0.44892406  0.71924084  0.50138524  1
  F  F19  1  0.94892386  0.28075582  0.49861799  1
  F  F20  1  0.44892282  0.78075484  0.00138599  1
  F  F21  1  0.94892383  0.21924355  0.99861556  1
  F  F22  1  0.55107674  0.28075523  0.49861865  1
  F  F23  1  0.05107591  0.71924118  0.50138589  1
