# generated using pymatgen
data_CuBF5
_symmetry_space_group_name_H-M   'P 1'
_cell_length_a   3.83952924
_cell_length_b   6.49377019
_cell_length_c   6.48038322
_cell_angle_alpha   89.99440031
_cell_angle_beta   89.99989321
_cell_angle_gamma   89.99999138
_symmetry_Int_Tables_number   1
_chemical_formula_structural   CuBF5
_chemical_formula_sum   'Cu2 B2 F10'
_cell_volume   161.57552693
_cell_formula_units_Z   2
loop_
 _symmetry_equiv_pos_site_id
 _symmetry_equiv_pos_as_xyz
  1  'x, y, z'
loop_
 _atom_site_type_symbol
 _atom_site_label
 _atom_site_symmetry_multiplicity
 _atom_site_fract_x
 _atom_site_fract_y
 _atom_site_fract_z
 _atom_site_occupancy
  Cu  Cu0  1  0.80863820  0.74999997  0.75000306  1
  Cu  Cu1  1  0.19130080  0.25000003  0.24999691  1
  B  B2  1  0.00023343  0.75000012  0.25000104  1
  B  B3  1  -0.00018968  0.24999988  0.74999896  1
  F  F4  1  0.69322359  0.24999996  0.25000005  1
  F  F5  1  0.30675639  0.75000006  0.74999998  1
  F  F6  1  0.78996961  0.42305861  0.79813726  1
  F  F7  1  0.78989284  0.79807033  0.07666226  1
  F  F8  1  0.21015910  0.29806684  0.57660470  1
  F  F9  1  0.20999565  0.92303197  0.29813209  1
  F  F10  1  0.20999532  0.57696849  0.20186728  1
  F  F11  1  0.21016089  0.20193266  0.92339269  1
  F  F12  1  0.78989463  0.70193015  0.42334035  1
  F  F13  1  0.78996924  0.07694092  0.70186337  1
