# generated using pymatgen
data_CuBi3S5
_symmetry_space_group_name_H-M   'P 1'
_cell_length_a   4.04511278
_cell_length_b   6.99419830
_cell_length_c   16.44136603
_cell_angle_alpha   94.41218170
_cell_angle_beta   89.99848311
_cell_angle_gamma   106.81560118
_symmetry_Int_Tables_number   1
_chemical_formula_structural   CuBi3S5
_chemical_formula_sum   'Cu2 Bi6 S10'
_cell_volume   443.83428822
_cell_formula_units_Z   2
loop_
 _symmetry_equiv_pos_site_id
 _symmetry_equiv_pos_as_xyz
  1  'x, y, z'
loop_
 _atom_site_type_symbol
 _atom_site_label
 _atom_site_symmetry_multiplicity
 _atom_site_fract_x
 _atom_site_fract_y
 _atom_site_fract_z
 _atom_site_occupancy
  Cu  Cu0  1  0.49999989  0.00000007  0.50000002  1
  Cu  Cu1  1  -0.00000064  -0.00000024  0.00000008  1
  Bi  Bi2  1  0.78588950  0.57173896  0.60395327  1
  Bi  Bi3  1  0.21411031  0.42826104  0.39604671  1
  Bi  Bi4  1  0.53766110  0.07525255  0.77825084  1
  Bi  Bi5  1  0.46233890  0.92474749  0.22174917  1
  Bi  Bi6  1  0.27444191  0.54888935  0.89426900  1
  Bi  Bi7  1  0.72555814  0.45111069  0.10573096  1
  S  S8  1  0.14947393  0.29911295  0.54018056  1
  S  S9  1  0.85052594  0.70088698  0.45981941  1
  S  S10  1  0.43753960  0.87498858  0.62429899  1
  S  S11  1  0.56246022  0.12501139  0.37570100  1
  S  S12  1  0.16876147  0.33740023  0.74276031  1
  S  S13  1  0.83123852  0.66259976  0.25723965  1
  S  S14  1  0.92976100  0.85957677  0.87185967  1
  S  S15  1  0.07023900  0.14042332  0.12814038  1
  S  S16  1  0.35133111  0.70243493  0.06113375  1
  S  S17  1  0.64866909  0.29756518  0.93886621  1
