# generated using pymatgen
data_CuBO2
_symmetry_space_group_name_H-M   'P 1'
_cell_length_a   2.53314459
_cell_length_b   2.53314444
_cell_length_c   11.11234725
_cell_angle_alpha   89.99999763
_cell_angle_beta   90.00000038
_cell_angle_gamma   120.00010193
_symmetry_Int_Tables_number   1
_chemical_formula_structural   CuBO2
_chemical_formula_sum   'Cu2 B2 O4'
_cell_volume   61.75269616
_cell_formula_units_Z   2
loop_
 _symmetry_equiv_pos_site_id
 _symmetry_equiv_pos_as_xyz
  1  'x, y, z'
loop_
 _atom_site_type_symbol
 _atom_site_label
 _atom_site_symmetry_multiplicity
 _atom_site_fract_x
 _atom_site_fract_y
 _atom_site_fract_z
 _atom_site_occupancy
  Cu  Cu0  1  0.66666663  0.33333334  0.75000000  1
  Cu  Cu1  1  0.33333341  0.66666671  0.25000000  1
  B  B2  1  -0.00000001  -0.00000001  -0.00000013  1
  B  B3  1  -0.00000001  -0.00000001  0.50000013  1
  O  O4  1  0.33333354  0.66666638  0.42143464  1
  O  O5  1  0.66666643  0.33333361  0.92143443  1
  O  O6  1  0.33333358  0.66666638  0.07856536  1
  O  O7  1  0.66666644  0.33333361  0.57856557  1
