# generated using pymatgen
data_CuClO4
_symmetry_space_group_name_H-M   'P 1'
_cell_length_a   4.94084716
_cell_length_b   4.94074088
_cell_length_c   4.94073265
_cell_angle_alpha   79.43635922
_cell_angle_beta   126.27745523
_cell_angle_gamma   126.27750830
_symmetry_Int_Tables_number   1
_chemical_formula_structural   CuClO4
_chemical_formula_sum   'Cu1 Cl1 O4'
_cell_volume   75.75923075
_cell_formula_units_Z   1
loop_
 _symmetry_equiv_pos_site_id
 _symmetry_equiv_pos_as_xyz
  1  'x, y, z'
loop_
 _atom_site_type_symbol
 _atom_site_label
 _atom_site_symmetry_multiplicity
 _atom_site_fract_x
 _atom_site_fract_y
 _atom_site_fract_z
 _atom_site_occupancy
  Cu  Cu0  1  -0.00006027  0.49995361  0.49995636  1
  Cl  Cl1  1  0.00005867  0.00002672  0.00002336  1
  O  O2  1  0.61996969  0.92305178  0.92305095  1
  O  O3  1  0.00001337  0.07695137  0.69696731  1
  O  O4  1  0.38000549  0.30305125  0.30305064  1
  O  O5  1  0.00001306  0.69696526  0.07695137  1
