# generated using pymatgen
data_CuHg2AsO4
_symmetry_space_group_name_H-M   'P 1'
_cell_length_a   6.28943577
_cell_length_b   8.99305966
_cell_length_c   9.26665397
_cell_angle_alpha   90.00069200
_cell_angle_beta   89.99999479
_cell_angle_gamma   90.00000019
_symmetry_Int_Tables_number   1
_chemical_formula_structural   CuHg2AsO4
_chemical_formula_sum   'Cu4 Hg8 As4 O16'
_cell_volume   524.13372744
_cell_formula_units_Z   4
loop_
 _symmetry_equiv_pos_site_id
 _symmetry_equiv_pos_as_xyz
  1  'x, y, z'
loop_
 _atom_site_type_symbol
 _atom_site_label
 _atom_site_symmetry_multiplicity
 _atom_site_fract_x
 _atom_site_fract_y
 _atom_site_fract_z
 _atom_site_occupancy
  Cu  Cu0  1  0.49999998  0.03683285  0.84939100  1
  Cu  Cu1  1  0.49999999  0.46314789  0.34937690  1
  Cu  Cu2  1  0.49999999  0.53684034  0.65063433  1
  Cu  Cu3  1  0.50000003  0.96317690  0.15059955  1
  Hg  Hg4  1  0.29104478  0.72905566  0.47652531  1
  Hg  Hg5  1  0.70895790  0.27094290  0.52347352  1
  Hg  Hg6  1  0.29104343  0.22905623  0.02347746  1
  Hg  Hg7  1  0.29104205  0.27094292  0.52347350  1
  Hg  Hg8  1  0.70895656  0.22905625  0.02347750  1
  Hg  Hg9  1  0.70895745  0.77094592  0.97652851  1
  Hg  Hg10  1  0.29104257  0.77094590  0.97652851  1
  Hg  Hg11  1  0.70895526  0.72905562  0.47652533  1
  As  As12  1  0.00000001  0.97572017  0.71859040  1
  As  As13  1  -0.00000002  0.47571561  0.78141455  1
  As  As14  1  -0.00000001  0.02427980  0.28140663  1
  As  As15  1  0.00000002  0.52428299  0.21858539  1
  O  O16  1  -0.00000002  0.64970511  0.07610672  1
  O  O17  1  0.23958950  0.42848616  0.21622025  1
  O  O18  1  0.00000002  0.88120925  0.88108294  1
  O  O19  1  -0.00000003  0.38120401  0.61892661  1
  O  O20  1  0.00000000  0.35029373  0.92389301  1
  O  O21  1  0.23958725  0.57151418  0.78378170  1
  O  O22  1  -0.00000001  0.11879238  0.11891474  1
  O  O23  1  0.23958772  0.92848615  0.28376375  1
  O  O24  1  0.00000002  0.61879733  0.38107166  1
  O  O25  1  0.23958754  0.07151514  0.71623286  1
  O  O26  1  0.76041251  0.07151517  0.71623294  1
  O  O27  1  0.00000002  0.14970459  0.42387827  1
  O  O28  1  0.76041060  0.42848611  0.21622034  1
  O  O29  1  -0.00000002  0.85029241  0.57612121  1
  O  O30  1  0.76041266  0.57151414  0.78378179  1
  O  O31  1  0.76041226  0.92848617  0.28376384  1
