# generated using pymatgen
data_Fe2HgS4
_symmetry_space_group_name_H-M   'P 1'
_cell_length_a   5.62862292
_cell_length_b   5.62881195
_cell_length_c   6.19047111
_cell_angle_alpha   117.04261227
_cell_angle_beta   117.04140990
_cell_angle_gamma   89.99425157
_symmetry_Int_Tables_number   1
_chemical_formula_structural   Fe2HgS4
_chemical_formula_sum   'Fe2 Hg1 S4'
_cell_volume   150.22019363
_cell_formula_units_Z   1
loop_
 _symmetry_equiv_pos_site_id
 _symmetry_equiv_pos_as_xyz
  1  'x, y, z'
loop_
 _atom_site_type_symbol
 _atom_site_label
 _atom_site_symmetry_multiplicity
 _atom_site_fract_x
 _atom_site_fract_y
 _atom_site_fract_z
 _atom_site_occupancy
  Fe  Fe0  1  0.24998867  0.74998893  0.49996420  1
  Fe  Fe1  1  0.49999648  0.49999108  -0.00001212  1
  Hg  Hg2  1  0.00000932  0.00001753  0.00000873  1
  S  S3  1  0.87003970  0.81523916  0.26882065  1
  S  S4  1  0.39876784  0.45356823  0.26881644  1
  S  S5  1  0.18476294  0.60122494  0.73120320  1
  S  S6  1  0.54643507  0.12997012  0.73119890  1
