# generated using pymatgen
data_Fe2PbSe4
_symmetry_space_group_name_H-M   'P 1'
_cell_length_a   6.18688566
_cell_length_b   6.18691807
_cell_length_c   11.18926329
_cell_angle_alpha   90.00000786
_cell_angle_beta   89.99999209
_cell_angle_gamma   128.72224483
_symmetry_Int_Tables_number   1
_chemical_formula_structural   Fe2PbSe4
_chemical_formula_sum   'Fe4 Pb2 Se8'
_cell_volume   334.15425236
_cell_formula_units_Z   2
loop_
 _symmetry_equiv_pos_site_id
 _symmetry_equiv_pos_as_xyz
  1  'x, y, z'
loop_
 _atom_site_type_symbol
 _atom_site_label
 _atom_site_symmetry_multiplicity
 _atom_site_fract_x
 _atom_site_fract_y
 _atom_site_fract_z
 _atom_site_occupancy
  Fe  Fe0  1  0.24982828  0.75020504  0.00000001  1
  Fe  Fe1  1  0.24976124  0.75020950  0.49999999  1
  Fe  Fe2  1  0.75020357  0.24985246  0.50000000  1
  Fe  Fe3  1  0.75018549  0.24976106  0.00000001  1
  Pb  Pb4  1  0.50002459  0.50000552  0.25000312  1
  Pb  Pb5  1  0.50002454  0.50000539  0.74999690  1
  Se  Se6  1  -0.00002314  0.49996566  0.16338247  1
  Se  Se7  1  0.16310569  0.33529822  0.49999996  1
  Se  Se8  1  0.50001266  0.00001523  0.33661751  1
  Se  Se9  1  0.33531712  0.16312865  -0.00000002  1
  Se  Se10  1  0.66468800  0.83689835  0.00000001  1
  Se  Se11  1  0.50001264  0.00001519  0.66338248  1
  Se  Se12  1  0.83688247  0.66467414  0.50000004  1
  Se  Se13  1  -0.00002313  0.49996560  0.83661751  1
