# generated using pymatgen
data_FeBiCl6
_symmetry_space_group_name_H-M   'P 1'
_cell_length_a   12.23563790
_cell_length_b   8.03395180
_cell_length_c   11.22005517
_cell_angle_alpha   80.48719440
_cell_angle_beta   90.00011414
_cell_angle_gamma   89.99976268
_symmetry_Int_Tables_number   1
_chemical_formula_structural   FeBiCl6
_chemical_formula_sum   'Fe4 Bi4 Cl24'
_cell_volume   1087.77048038
_cell_formula_units_Z   4
loop_
 _symmetry_equiv_pos_site_id
 _symmetry_equiv_pos_as_xyz
  1  'x, y, z'
loop_
 _atom_site_type_symbol
 _atom_site_label
 _atom_site_symmetry_multiplicity
 _atom_site_fract_x
 _atom_site_fract_y
 _atom_site_fract_z
 _atom_site_occupancy
  Fe  Fe0  1  0.77323611  0.49542178  0.71677832  1
  Fe  Fe1  1  0.72676344  0.49542057  0.21677871  1
  Fe  Fe2  1  0.27323611  0.50457842  0.78322126  1
  Fe  Fe3  1  0.22676402  0.50457939  0.28321953  1
  Bi  Bi4  1  0.96427282  0.19401781  0.35048997  1
  Bi  Bi5  1  0.53572963  0.19401751  0.85049037  1
  Bi  Bi6  1  0.03572747  0.80598168  0.64951098  1
  Bi  Bi7  1  0.46426968  0.80598203  0.14951039  1
  Cl  Cl8  1  0.43302777  -0.00106636  0.29337076  1
  Cl  Cl9  1  0.90326814  0.52979588  0.18190809  1
  Cl  Cl10  1  0.65321563  0.69808020  0.30481122  1
  Cl  Cl11  1  0.13059250  0.50017198  0.44822310  1
  Cl  Cl12  1  0.86940818  0.49982891  0.55177600  1
  Cl  Cl13  1  0.06697150  -0.00106770  0.79337009  1
  Cl  Cl14  1  0.36940925  0.50017156  0.94822485  1
  Cl  Cl15  1  0.09673066  0.47020402  0.81809055  1
  Cl  Cl16  1  0.15321668  0.30191859  0.19518825  1
  Cl  Cl17  1  0.40326811  0.47020337  0.31809060  1
  Cl  Cl18  1  0.59673216  0.52979696  0.68190851  1
  Cl  Cl19  1  0.63059160  0.49982799  0.05177617  1
  Cl  Cl20  1  0.63224300  0.98904589  0.04095301  1
  Cl  Cl21  1  0.72197060  0.24873755  0.33892446  1
  Cl  Cl22  1  0.22197087  0.75126267  0.16107420  1
  Cl  Cl23  1  0.36775715  0.01095505  0.95904769  1
  Cl  Cl24  1  0.27802911  0.75126358  0.66107423  1
  Cl  Cl25  1  0.93302842  0.00106603  0.20663177  1
  Cl  Cl26  1  0.34678489  0.30191773  0.69518832  1
  Cl  Cl27  1  0.77802830  0.24873865  0.83892431  1
  Cl  Cl28  1  0.13224275  0.01095544  0.45904681  1
  Cl  Cl29  1  0.84678458  0.69808366  0.80481254  1
  Cl  Cl30  1  0.56697203  0.00106477  0.70663090  1
  Cl  Cl31  1  0.86775684  0.98904437  0.54095402  1
