# generated using pymatgen
data_FeCuBr4
_symmetry_space_group_name_H-M   'P 1'
_cell_length_a   5.84110373
_cell_length_b   5.84097662
_cell_length_c   10.77459468
_cell_angle_alpha   89.99999491
_cell_angle_beta   89.99999827
_cell_angle_gamma   89.99998264
_symmetry_Int_Tables_number   1
_chemical_formula_structural   FeCuBr4
_chemical_formula_sum   'Fe2 Cu2 Br8'
_cell_volume   367.60493111
_cell_formula_units_Z   2
loop_
 _symmetry_equiv_pos_site_id
 _symmetry_equiv_pos_as_xyz
  1  'x, y, z'
loop_
 _atom_site_type_symbol
 _atom_site_label
 _atom_site_symmetry_multiplicity
 _atom_site_fract_x
 _atom_site_fract_y
 _atom_site_fract_z
 _atom_site_occupancy
  Fe  Fe0  1  -0.00000003  0.49999990  0.75000238  1
  Fe  Fe1  1  0.49999998  -0.00000001  0.24999782  1
  Cu  Cu2  1  0.50000003  0.50000003  0.00000068  1
  Cu  Cu3  1  0.49999998  0.50000003  0.49999936  1
  Br  Br4  1  0.23847885  0.73475846  0.87610935  1
  Br  Br5  1  0.76152117  0.26524148  0.87610942  1
  Br  Br6  1  0.23847375  0.26523182  0.62389342  1
  Br  Br7  1  0.76152627  0.73476820  0.62389343  1
  Br  Br8  1  0.73475338  0.76152313  0.12389235  1
  Br  Br9  1  0.26524665  0.23847684  0.12389232  1
  Br  Br10  1  0.26523683  0.76152859  0.37610474  1
  Br  Br11  1  0.73476312  0.23847151  0.37610473  1
