# generated using pymatgen
data_FeSCl7
_symmetry_space_group_name_H-M   'P 1'
_cell_length_a   6.50997972
_cell_length_b   6.94703722
_cell_length_c   13.32521929
_cell_angle_alpha   104.22633634
_cell_angle_beta   90.00004370
_cell_angle_gamma   90.00006237
_symmetry_Int_Tables_number   1
_chemical_formula_structural   FeSCl7
_chemical_formula_sum   'Fe2 S2 Cl14'
_cell_volume   584.15271019
_cell_formula_units_Z   2
loop_
 _symmetry_equiv_pos_site_id
 _symmetry_equiv_pos_as_xyz
  1  'x, y, z'
loop_
 _atom_site_type_symbol
 _atom_site_label
 _atom_site_symmetry_multiplicity
 _atom_site_fract_x
 _atom_site_fract_y
 _atom_site_fract_z
 _atom_site_occupancy
  Fe  Fe0  1  0.49001053  0.45436786  0.85682997  1
  Fe  Fe1  1  0.50998943  0.45436410  0.35682879  1
  S  S2  1  0.08306439  0.11711300  0.69031414  1
  S  S3  1  0.91693563  0.11711237  0.19031406  1
  Cl  Cl4  1  0.70043331  0.94151233  0.10316353  1
  Cl  Cl5  1  0.09466812  0.18098472  0.07813213  1
  Cl  Cl6  1  0.37510941  0.69556882  0.98375577  1
  Cl  Cl7  1  0.29956362  0.94151472  0.60316400  1
  Cl  Cl8  1  0.91192624  0.91324954  0.73811339  1
  Cl  Cl9  1  0.62489071  0.69557757  0.48375818  1
  Cl  Cl10  1  0.17244294  0.46244891  0.35131166  1
  Cl  Cl11  1  0.37637765  0.16621583  0.87962624  1
  Cl  Cl12  1  0.82754478  0.46245584  0.85131577  1
  Cl  Cl13  1  0.62362929  0.16620597  0.37962726  1
  Cl  Cl14  1  0.63944924  0.47683383  0.20664182  1
  Cl  Cl15  1  0.90533105  0.18098943  0.57813462  1
  Cl  Cl16  1  0.36055999  0.47683655  0.70665120  1
  Cl  Cl17  1  0.08807367  0.91324663  0.23811147  1
