# generated using pymatgen
data_FeTeCl7
_symmetry_space_group_name_H-M   'P 1'
_cell_length_a   12.86451912
_cell_length_b   6.76783088
_cell_length_c   14.78311329
_cell_angle_alpha   74.70843472
_cell_angle_beta   90.00008589
_cell_angle_gamma   90.00007751
_symmetry_Int_Tables_number   1
_chemical_formula_structural   FeTeCl7
_chemical_formula_sum   'Fe4 Te4 Cl28'
_cell_volume   1241.52231741
_cell_formula_units_Z   4
loop_
 _symmetry_equiv_pos_site_id
 _symmetry_equiv_pos_as_xyz
  1  'x, y, z'
loop_
 _atom_site_type_symbol
 _atom_site_label
 _atom_site_symmetry_multiplicity
 _atom_site_fract_x
 _atom_site_fract_y
 _atom_site_fract_z
 _atom_site_occupancy
  Fe  Fe0  1  0.04461951  0.63914537  0.27406138  1
  Fe  Fe1  1  0.54461999  0.36085387  0.22593730  1
  Fe  Fe2  1  0.95538048  0.36084706  0.72593810  1
  Fe  Fe3  1  0.45538051  0.63915727  0.77406499  1
  Te  Te4  1  0.75090072  0.90832289  0.61407287  1
  Te  Te5  1  0.74909901  0.90832418  0.11407334  1
  Te  Te6  1  0.24909910  0.09167535  0.38592659  1
  Te  Te7  1  0.25090035  0.09167689  0.88592758  1
  Cl  Cl8  1  0.89949005  0.04198320  0.73758166  1
  Cl  Cl9  1  0.10248125  0.42536874  0.40590498  1
  Cl  Cl10  1  0.84645937  0.10755108  0.48798073  1
  Cl  Cl11  1  0.60248259  0.57463397  0.09409059  1
  Cl  Cl12  1  0.39752158  0.42539353  0.90589545  1
  Cl  Cl13  1  0.86291904  0.78855505  0.01658264  1
  Cl  Cl14  1  0.60051521  0.04196006  0.23757954  1
  Cl  Cl15  1  0.15354126  0.89244629  0.51201907  1
  Cl  Cl16  1  0.35683907  0.82143917  0.37235466  1
  Cl  Cl17  1  0.13708070  0.21144501  0.98341794  1
  Cl  Cl18  1  0.63708127  0.78855259  0.51658357  1
  Cl  Cl19  1  0.89752105  0.57461581  0.59410189  1
  Cl  Cl20  1  0.90179771  0.45980017  0.84495747  1
  Cl  Cl21  1  0.65354209  0.10755332  0.98797967  1
  Cl  Cl22  1  0.12855290  0.35403857  0.72109690  1
  Cl  Cl23  1  0.10051410  0.95803076  0.26241913  1
  Cl  Cl24  1  0.59820588  0.45980903  0.34496242  1
  Cl  Cl25  1  0.09820399  0.54019283  0.15503800  1
  Cl  Cl26  1  0.37143437  0.35403679  0.22109528  1
  Cl  Cl27  1  0.39949179  0.95800794  0.76241963  1
  Cl  Cl28  1  0.36291865  0.21144504  0.48341686  1
  Cl  Cl29  1  0.64316236  0.17855802  0.62764564  1
  Cl  Cl30  1  0.34645952  0.89244993  0.01201994  1
  Cl  Cl31  1  0.14316237  0.82144253  0.87235400  1
  Cl  Cl32  1  0.87143811  0.64596053  0.27890334  1
  Cl  Cl33  1  0.62854701  0.64596376  0.77890460  1
  Cl  Cl34  1  0.40179778  0.54020440  0.65504616  1
  Cl  Cl35  1  0.85683925  0.17855900  0.12764610  1
