# generated using pymatgen
data_Ga4B2O9
_symmetry_space_group_name_H-M   'P 1'
_cell_length_a   5.77556238
_cell_length_b   8.24160133
_cell_length_c   15.78144632
_cell_angle_alpha   90.98084011
_cell_angle_beta   90.00029400
_cell_angle_gamma   69.48841451
_symmetry_Int_Tables_number   1
_chemical_formula_structural   Ga4B2O9
_chemical_formula_sum   'Ga16 B8 O36'
_cell_volume   703.45275318
_cell_formula_units_Z   4
loop_
 _symmetry_equiv_pos_site_id
 _symmetry_equiv_pos_as_xyz
  1  'x, y, z'
loop_
 _atom_site_type_symbol
 _atom_site_label
 _atom_site_symmetry_multiplicity
 _atom_site_fract_x
 _atom_site_fract_y
 _atom_site_fract_z
 _atom_site_occupancy
  Ga  Ga0  1  0.19301184  0.61399470  0.15747213  1
  Ga  Ga1  1  0.80698815  0.38600527  0.84252788  1
  Ga  Ga2  1  0.33038334  0.33920607  0.34222337  1
  Ga  Ga3  1  0.66961664  0.66079391  0.65777662  1
  Ga  Ga4  1  0.42939254  0.14125401  0.06796880  1
  Ga  Ga5  1  0.57060746  0.85874596  0.93203121  1
  Ga  Ga6  1  0.50000000  0.49999999  0.00000000  1
  Ga  Ga7  1  -0.00000000  0.49999999  -0.00000000  1
  Ga  Ga8  1  0.25435759  0.99986715  0.24097663  1
  Ga  Ga9  1  0.74577300  0.99986949  0.24098064  1
  Ga  Ga10  1  0.74564240  0.00013284  0.75902336  1
  Ga  Ga11  1  0.25422699  0.00013049  0.75901935  1
  Ga  Ga12  1  0.13525910  0.72953078  0.34017276  1
  Ga  Ga13  1  0.86474089  0.27046923  0.65982726  1
  Ga  Ga14  1  0.50000001  0.49999996  0.50000000  1
  Ga  Ga15  1  0.00000001  0.49999997  0.50000000  1
  B  B16  1  0.62221976  0.75558826  0.11683716  1
  B  B17  1  0.37778025  0.24441169  0.88316285  1
  B  B18  1  0.61212282  0.77578252  0.38716253  1
  B  B19  1  0.38787722  0.22421744  0.61283749  1
  B  B20  1  0.89849661  0.20303843  0.10046170  1
  B  B21  1  0.10150340  0.79696154  0.89953828  1
  B  B22  1  0.87201054  0.25594942  0.36729458  1
  B  B23  1  0.12798945  0.74405052  0.63270545  1
  O  O24  1  0.23743716  0.52514383  0.26849893  1
  O  O25  1  0.76256285  0.47485618  0.73150109  1
  O  O26  1  0.47033767  0.64145300  0.10620496  1
  O  O27  1  0.88822578  0.64142320  0.10621508  1
  O  O28  1  0.52966234  0.35854696  0.89379506  1
  O  O29  1  0.11177422  0.35857676  0.89378493  1
  O  O30  1  0.37022952  0.84198170  0.35734776  1
  O  O31  1  0.78781188  0.84197938  0.35734549  1
  O  O32  1  0.62977044  0.15801832  0.64265225  1
  O  O33  1  0.21218809  0.15802062  0.64265451  1
  O  O34  1  0.21283529  0.57433785  0.43291674  1
  O  O35  1  0.78716472  0.42566211  0.56708326  1
  O  O36  1  0.14087718  0.13405018  0.13138231  1
  O  O37  1  0.72510603  0.13405456  0.13138563  1
  O  O38  1  0.85912281  0.86594978  0.86861768  1
  O  O39  1  0.27489399  0.86594540  0.86861436  1
  O  O40  1  0.67706427  0.64589812  0.44712785  1
  O  O41  1  0.32293574  0.35410184  0.55287213  1
  O  O42  1  0.16464929  0.67069658  0.95923952  1
  O  O43  1  0.83535073  0.32930339  0.04076047  1
  O  O44  1  0.42804127  0.14390853  0.27596014  1
  O  O45  1  0.57195867  0.85609154  0.72403978  1
  O  O46  1  0.57514351  0.84972126  0.19778647  1
  O  O47  1  0.42485651  0.15027869  0.80221355  1
  O  O48  1  0.04845014  0.31808994  0.40185489  1
  O  O49  1  0.63343122  0.31808142  0.40185858  1
  O  O50  1  0.95154987  0.68190999  0.59814512  1
  O  O51  1  0.36656879  0.68191847  0.59814143  1
  O  O52  1  0.93039284  0.13918741  0.30058856  1
  O  O53  1  0.06960719  0.86081250  0.69941145  1
  O  O54  1  0.30068975  0.39863161  0.06587323  1
  O  O55  1  0.69931024  0.60136837  0.93412678  1
  O  O56  1  0.07873644  0.84253347  0.22455443  1
  O  O57  1  0.92126357  0.15746651  0.77544557  1
  O  O58  1  0.55722774  0.88565085  0.05019762  1
  O  O59  1  0.44277227  0.11434911  0.94980239  1
