# generated using pymatgen
data_Ga5BO9
_symmetry_space_group_name_H-M   'P 1'
_cell_length_a   8.41931818
_cell_length_b   8.41931811
_cell_length_c   8.12859627
_cell_angle_alpha   90.00020356
_cell_angle_beta   89.99979937
_cell_angle_gamma   138.53789253
_symmetry_Int_Tables_number   1
_chemical_formula_structural   Ga5BO9
_chemical_formula_sum   'Ga10 B2 O18'
_cell_volume   381.51279424
_cell_formula_units_Z   2
loop_
 _symmetry_equiv_pos_site_id
 _symmetry_equiv_pos_as_xyz
  1  'x, y, z'
loop_
 _atom_site_type_symbol
 _atom_site_label
 _atom_site_symmetry_multiplicity
 _atom_site_fract_x
 _atom_site_fract_y
 _atom_site_fract_z
 _atom_site_occupancy
  Ga  Ga0  1  0.36168966  0.13634971  0.49947031  1
  Ga  Ga1  1  0.29569148  0.70430867  0.33356011  1
  Ga  Ga2  1  0.70430796  0.29569218  0.83355930  1
  Ga  Ga3  1  0.55689513  0.44310500  0.18376270  1
  Ga  Ga4  1  0.44310564  0.55689445  0.68376108  1
  Ga  Ga5  1  0.74506480  0.25493533  0.19140515  1
  Ga  Ga6  1  0.25493465  0.74506548  0.69140410  1
  Ga  Ga7  1  0.13635040  0.36169084  0.99947084  1
  Ga  Ga8  1  0.86365016  0.63831015  0.49947037  1
  Ga  Ga9  1  0.63830901  0.86364950  0.99947088  1
  B  B10  1  0.98425493  0.01574500  0.71957651  1
  B  B11  1  0.01574915  0.98425078  0.21958579  1
  O  O12  1  0.18855273  0.81144718  0.43614389  1
  O  O13  1  0.95787604  0.04212382  0.09302875  1
  O  O14  1  0.04212063  0.95787922  0.59303565  1
  O  O15  1  0.45600692  0.54399299  0.06813665  1
  O  O16  1  0.54399225  0.45600763  0.56813797  1
  O  O17  1  0.66399584  0.33600411  0.36567596  1
  O  O18  1  0.33600450  0.66399540  0.86567633  1
  O  O19  1  0.84291789  0.75175909  0.28297018  1
  O  O20  1  0.81144806  0.18855185  0.93614442  1
  O  O21  1  0.65105213  0.34894805  0.04037051  1
  O  O22  1  0.75175648  0.84291657  0.78297193  1
  O  O23  1  0.24824089  0.15708208  0.28297014  1
  O  O24  1  0.15708338  0.24824349  0.78297191  1
  O  O25  1  0.44314014  0.06802175  0.70112266  1
  O  O26  1  0.06802180  0.44313942  0.20112199  1
  O  O27  1  0.55686066  0.93197828  0.20112203  1
  O  O28  1  0.93197840  0.55686006  0.70112277  1
  O  O29  1  0.34894829  0.65105191  0.54037111  1
