# generated using pymatgen
data_In2PbSe4
_symmetry_space_group_name_H-M   'P 1'
_cell_length_a   6.47406405
_cell_length_b   6.47406409
_cell_length_c   11.13929322
_cell_angle_alpha   90.00000420
_cell_angle_beta   89.99999697
_cell_angle_gamma   116.03608709
_symmetry_Int_Tables_number   1
_chemical_formula_structural   In2PbSe4
_chemical_formula_sum   'In4 Pb2 Se8'
_cell_volume   419.50610984
_cell_formula_units_Z   2
loop_
 _symmetry_equiv_pos_site_id
 _symmetry_equiv_pos_as_xyz
  1  'x, y, z'
loop_
 _atom_site_type_symbol
 _atom_site_label
 _atom_site_symmetry_multiplicity
 _atom_site_fract_x
 _atom_site_fract_y
 _atom_site_fract_z
 _atom_site_occupancy
  In  In0  1  0.22304612  0.76947300  -0.00000001  1
  In  In1  1  0.23052701  0.77695399  0.50000001  1
  In  In2  1  0.76947295  0.22304600  0.50000001  1
  In  In3  1  0.77695396  0.23052700  -0.00000002  1
  Pb  Pb4  1  0.50000006  0.50000012  0.24999998  1
  Pb  Pb5  1  0.49999976  0.49999992  0.75000003  1
  Se  Se6  1  -0.00000001  0.50000000  0.18129563  1
  Se  Se7  1  0.21203622  0.35268955  0.49999999  1
  Se  Se8  1  0.50000003  -0.00000003  0.31870441  1
  Se  Se9  1  0.35268969  0.21203631  0.00000000  1
  Se  Se10  1  0.64731041  0.78796374  0.00000000  1
  Se  Se11  1  0.49999998  -0.00000000  0.68129559  1
  Se  Se12  1  0.78796373  0.64731039  0.50000000  1
  Se  Se13  1  0.00000008  0.50000002  0.81870437  1
