# generated using pymatgen
data_InH15Br3N5
_symmetry_space_group_name_H-M   'P 1'
_cell_length_a   7.19450818
_cell_length_b   11.36047079
_cell_length_c   14.30608441
_cell_angle_alpha   90.00000503
_cell_angle_beta   90.00000272
_cell_angle_gamma   90.00000031
_symmetry_Int_Tables_number   1
_chemical_formula_structural   InH15Br3N5
_chemical_formula_sum   'In4 H60 Br12 N20'
_cell_volume   1169.27919747
_cell_formula_units_Z   4
loop_
 _symmetry_equiv_pos_site_id
 _symmetry_equiv_pos_as_xyz
  1  'x, y, z'
loop_
 _atom_site_type_symbol
 _atom_site_label
 _atom_site_symmetry_multiplicity
 _atom_site_fract_x
 _atom_site_fract_y
 _atom_site_fract_z
 _atom_site_occupancy
  In  In0  1  0.82903099  0.74999988  0.10211301  1
  In  In1  1  0.67096903  0.75000000  0.60211301  1
  In  In2  1  0.17096893  0.25000003  0.89788687  1
  In  In3  1  0.32903092  0.25000000  0.39788708  1
  H  H4  1  0.02586687  0.74999998  0.27822978  1
  H  H5  1  0.47413331  0.75000001  0.77822975  1
  H  H6  1  -0.02586690  0.24999996  0.72177026  1
  H  H7  1  0.52586665  0.25000002  0.22177023  1
  H  H8  1  0.14929954  0.67649371  0.19929169  1
  H  H9  1  0.35070050  0.82350623  0.69929171  1
  H  H10  1  0.85070046  0.17649377  0.80070830  1
  H  H11  1  0.64929945  0.32350631  0.30070830  1
  H  H12  1  0.85070047  0.32350621  0.80070828  1
  H  H13  1  0.64929948  0.17649378  0.30070831  1
  H  H14  1  0.14929958  0.82350622  0.19929169  1
  H  H15  1  0.35070052  0.67649374  0.69929173  1
  H  H16  1  0.45980229  0.74999991  0.01782649  1
  H  H17  1  0.04019779  0.74999999  0.51782654  1
  H  H18  1  0.54019781  0.24999996  0.98217345  1
  H  H19  1  0.95980225  0.24999996  0.48217350  1
  H  H20  1  0.89112786  0.67645690  0.45127217  1
  H  H21  1  0.60887219  0.82354303  0.95127221  1
  H  H22  1  0.10887211  0.17645690  0.54872780  1
  H  H23  1  0.39112778  0.32354310  0.04872782  1
  H  H24  1  0.10887210  0.32354302  0.54872782  1
  H  H25  1  0.39112777  0.17645682  0.04872780  1
  H  H26  1  0.89112789  0.82354311  0.45127219  1
  H  H27  1  0.60887227  0.67645686  0.95127219  1
  H  H28  1  0.63724031  0.75000009  0.28257583  1
  H  H29  1  0.86275957  0.75000007  0.78257579  1
  H  H30  1  0.36275971  0.25000003  0.71742420  1
  H  H31  1  0.13724042  0.24999995  0.21742420  1
  H  H32  1  0.51571183  0.67649555  0.20382053  1
  H  H33  1  0.98428815  0.82350452  0.70382051  1
  H  H34  1  0.48428820  0.17649558  0.79617946  1
  H  H35  1  0.01571186  0.32350447  0.29617948  1
  H  H36  1  0.48428818  0.32350450  0.79617946  1
  H  H37  1  0.01571185  0.17649550  0.29617950  1
  H  H38  1  0.51571178  0.82350452  0.20382050  1
  H  H39  1  0.98428813  0.67649554  0.70382053  1
  H  H40  1  0.76693276  0.50748736  0.05864958  1
  H  H41  1  0.73306710  0.99251266  0.55864955  1
  H  H42  1  0.23306722  0.00748735  0.94135040  1
  H  H43  1  0.26693268  0.49251264  0.44135051  1
  H  H44  1  0.23306716  0.49251265  0.94135049  1
  H  H45  1  0.26693280  0.00748736  0.44135042  1
  H  H46  1  0.76693276  0.99251264  0.05864957  1
  H  H47  1  0.73306720  0.50748737  0.55864949  1
  H  H48  1  0.97664275  0.52174640  0.10540184  1
  H  H49  1  0.52335702  0.97825356  0.60540182  1
  H  H50  1  0.02335711  0.02174643  0.89459812  1
  H  H51  1  0.47664282  0.47825360  0.39459823  1
  H  H52  1  0.02335713  0.47825358  0.89459819  1
  H  H53  1  0.47664292  0.02174643  0.39459816  1
  H  H54  1  0.97664296  0.97825357  0.10540189  1
  H  H55  1  0.52335713  0.52174643  0.60540178  1
  H  H56  1  0.79280270  0.52013917  0.17405821  1
  H  H57  1  0.70719716  0.97986083  0.67405822  1
  H  H58  1  0.20719725  0.02013918  0.82594172  1
  H  H59  1  0.29280265  0.47986083  0.32594181  1
  H  H60  1  0.20719726  0.47986085  0.82594183  1
  H  H61  1  0.29280276  0.02013919  0.32594173  1
  H  H62  1  0.79280271  0.97986083  0.17405832  1
  H  H63  1  0.70719728  0.52013919  0.67405815  1
  Br  Br64  1  0.42343914  0.75000001  0.46195877  1
  Br  Br65  1  0.07656087  0.75000001  0.96195887  1
  Br  Br66  1  0.57656081  0.25000001  0.53804119  1
  Br  Br67  1  0.92343914  0.24999999  0.03804117  1
  Br  Br68  1  0.83255961  0.49933730  0.35417680  1
  Br  Br69  1  0.66744035  0.00066268  0.85417690  1
  Br  Br70  1  0.16744035  -0.00066272  0.64582312  1
  Br  Br71  1  0.33255964  0.50066267  0.14582318  1
  Br  Br72  1  0.16744036  0.50066271  0.64582320  1
  Br  Br73  1  0.33255962  -0.00066268  0.14582311  1
  Br  Br74  1  0.83255961  0.00066273  0.35417687  1
  Br  Br75  1  0.66744038  0.49933731  0.85417680  1
  N  N76  1  0.06769255  0.74999999  0.20996358  1
  N  N77  1  0.43230756  0.74999999  0.70996356  1
  N  N78  1  0.93230756  0.24999999  0.79003647  1
  N  N79  1  0.56769251  0.25000003  0.29003641  1
  N  N80  1  0.59388465  0.74999998  -0.00683355  1
  N  N81  1  0.90611545  0.75000001  0.49316644  1
  N  N82  1  0.40611549  0.24999999  0.00683360  1
  N  N83  1  0.09388461  0.24999998  0.50683353  1
  N  N84  1  0.59798148  0.75000002  0.21368221  1
  N  N85  1  0.90201844  0.75000003  0.71368218  1
  N  N86  1  0.40201847  0.25000002  0.78631781  1
  N  N87  1  0.09798145  0.24999999  0.28631778  1
  N  N88  1  0.84050669  0.54940349  0.11025708  1
  N  N89  1  0.65949311  0.95059656  0.61025705  1
  N  N90  1  0.15949322  0.04940343  0.88974288  1
  N  N91  1  0.34050671  0.45059656  0.38974297  1
  N  N92  1  0.15949322  0.45059655  0.88974297  1
  N  N93  1  0.34050679  0.04940345  0.38974290  1
  N  N94  1  0.84050678  0.95059665  0.11025714  1
  N  N95  1  0.65949321  0.54940347  0.61025701  1
