# generated using pymatgen
data_InTeI7
_symmetry_space_group_name_H-M   'P 1'
_cell_length_a   7.58198662
_cell_length_b   7.90160512
_cell_length_c   17.26026608
_cell_angle_alpha   105.27872098
_cell_angle_beta   90.00000368
_cell_angle_gamma   90.00000376
_symmetry_Int_Tables_number   1
_chemical_formula_structural   InTeI7
_chemical_formula_sum   'In2 Te2 I14'
_cell_volume   997.51170467
_cell_formula_units_Z   2
loop_
 _symmetry_equiv_pos_site_id
 _symmetry_equiv_pos_as_xyz
  1  'x, y, z'
loop_
 _atom_site_type_symbol
 _atom_site_label
 _atom_site_symmetry_multiplicity
 _atom_site_fract_x
 _atom_site_fract_y
 _atom_site_fract_z
 _atom_site_occupancy
  In  In0  1  0.99804965  0.28827449  0.65524942  1
  In  In1  1  0.00195048  0.28827443  0.15524950  1
  Te  Te2  1  0.59898730  0.00123545  0.50185418  1
  Te  Te3  1  0.40101262  0.00123538  0.00185419  1
  I  I4  1  0.39381047  0.10356110  0.38942000  1
  I  I5  1  0.38897561  0.73373754  0.52722037  1
  I  I6  1  0.16709665  0.78533248  0.89432942  1
  I  I7  1  0.83290330  0.78533245  0.39432944  1
  I  I8  1  0.13951170  0.96057643  0.15390761  1
  I  I9  1  0.61102432  0.73373748  0.02722035  1
  I  I10  1  0.14000273  0.34897564  0.01509801  1
  I  I11  1  0.85999724  0.34897563  0.51509795  1
  I  I12  1  0.64159529  0.31446833  0.16052969  1
  I  I13  1  0.35840467  0.31446825  0.66052975  1
  I  I14  1  0.14708025  0.52594081  0.28690928  1
  I  I15  1  0.85291989  0.52594063  0.78690921  1
  I  I16  1  0.60618949  0.10356113  0.88942000  1
  I  I17  1  0.86048834  0.96057637  0.65390761  1
