# generated using pymatgen
data_K15P4S16Cl3
_symmetry_space_group_name_H-M   'P 1'
_cell_length_a   15.15358795
_cell_length_b   15.15358791
_cell_length_c   15.15358810
_cell_angle_alpha   109.47124848
_cell_angle_beta   109.47125005
_cell_angle_gamma   109.47124861
_symmetry_Int_Tables_number   1
_chemical_formula_structural   K15P4S16Cl3
_chemical_formula_sum   'K30 P8 S32 Cl6'
_cell_volume   2678.69999743
_cell_formula_units_Z   2
loop_
 _symmetry_equiv_pos_site_id
 _symmetry_equiv_pos_as_xyz
  1  'x, y, z'
loop_
 _atom_site_type_symbol
 _atom_site_label
 _atom_site_symmetry_multiplicity
 _atom_site_fract_x
 _atom_site_fract_y
 _atom_site_fract_z
 _atom_site_occupancy
  K  K0  1  0.77646198  0.58002987  0.62140495  1
  K  K1  1  0.12499986  0.74999981  0.87499970  1
  K  K2  1  0.15505653  0.87859450  0.45862471  1
  K  K3  1  0.69643236  0.04137539  0.91997013  1
  K  K4  1  0.19643237  0.41997013  0.54137540  1
  K  K5  1  0.95862470  0.37859447  0.65505652  1
  K  K6  1  0.45862471  0.15505653  0.87859449  1
  K  K7  1  0.08002988  0.27646198  0.12140496  1
  K  K8  1  0.91997014  0.69643239  0.04137539  1
  K  K9  1  0.80356755  0.72353795  0.34494341  1
  K  K10  1  0.54137539  0.19643236  0.41997013  1
  K  K11  1  0.74999981  0.87499970  0.12499985  1
  K  K12  1  0.58002987  0.62140495  0.77646198  1
  K  K13  1  0.22353795  0.30356755  0.84494342  1
  K  K14  1  0.04137540  0.91997013  0.69643239  1
  K  K15  1  0.12140495  0.08002987  0.27646197  1
  K  K16  1  0.65505651  0.95862471  0.37859449  1
  K  K17  1  0.37859449  0.65505652  0.95862471  1
  K  K18  1  0.87499970  0.12499985  0.74999979  1
  K  K19  1  0.37499970  0.24999980  0.62499985  1
  K  K20  1  0.84494342  0.22353794  0.30356755  1
  K  K21  1  0.34494340  0.80356754  0.72353793  1
  K  K22  1  0.87859450  0.45862471  0.15505654  1
  K  K23  1  0.27646198  0.12140497  0.08002988  1
  K  K24  1  0.62140495  0.77646198  0.58002987  1
  K  K25  1  0.72353795  0.34494340  0.80356754  1
  K  K26  1  0.62499985  0.37499969  0.24999980  1
  K  K27  1  0.41997013  0.54137541  0.19643238  1
  K  K28  1  0.30356753  0.84494340  0.22353792  1
  K  K29  1  0.24999981  0.62499986  0.37499970  1
  P  P30  1  0.39749018  0.39749019  0.39749018  1
  P  P31  1  0.50000014  -0.00000002  0.10250981  1
  P  P32  1  0.60250981  0.49999998  0.00000015  1
  P  P33  1  0.10250981  0.50000015  -0.00000002  1
  P  P34  1  0.00000015  0.60250980  0.49999998  1
  P  P35  1  -0.00000002  0.10250982  0.50000015  1
  P  P36  1  0.89749019  0.89749019  0.89749019  1
  P  P37  1  0.49999998  0.00000015  0.60250980  1
  S  S38  1  0.34626388  0.94885886  0.08173900  1
  S  S39  1  0.08173897  0.34626387  0.94885883  1
  S  S40  1  0.50000007  0.00000013  0.46692463  1
  S  S41  1  0.65373632  0.10259551  0.73547557  1
  S  S42  1  0.39740477  0.05114114  0.63287989  1
  S  S43  1  0.50000013  0.00000008  0.96692463  1
  S  S44  1  0.03307559  0.03307559  0.03307560  1
  S  S45  1  0.60259550  0.15373631  0.23547557  1
  S  S46  1  0.96692466  0.50000019  0.00000014  1
  S  S47  1  0.41826100  0.36711982  0.26452478  1
  S  S48  1  0.55114114  0.89740476  0.13287988  1
  S  S49  1  0.44885886  0.84626388  0.58173900  1
  S  S50  1  0.00000013  0.96692467  0.50000020  1
  S  S51  1  0.73547558  0.65373631  0.10259551  1
  S  S52  1  0.36711980  0.26452476  0.41826098  1
  S  S53  1  0.84626387  0.58173896  0.44885883  1
  S  S54  1  0.94885886  0.08173898  0.34626388  1
  S  S55  1  0.86711982  0.91826100  0.76452478  1
  S  S56  1  0.91826100  0.76452478  0.86711980  1
  S  S57  1  0.10259550  0.73547558  0.65373631  1
  S  S58  1  0.00000019  0.46692467  0.50000014  1
  S  S59  1  0.46692468  0.50000013  0.00000020  1
  S  S60  1  0.63287988  0.39740476  0.05114112  1
  S  S61  1  0.58173898  0.44885886  0.84626387  1
  S  S62  1  0.26452478  0.41826099  0.36711980  1
  S  S63  1  0.53307559  0.53307559  0.53307560  1
  S  S64  1  0.23547558  0.60259550  0.15373632  1
  S  S65  1  0.05114114  0.63287988  0.39740477  1
  S  S66  1  0.15373632  0.23547559  0.60259552  1
  S  S67  1  0.89740476  0.13287988  0.55114112  1
  S  S68  1  0.76452477  0.86711980  0.91826098  1
  S  S69  1  0.13287989  0.55114115  0.89740478  1
  Cl  Cl70  1  0.12499986  0.87500014  0.25000019  1
  Cl  Cl71  1  0.62499987  0.75000019  0.37500014  1
  Cl  Cl72  1  0.75000019  0.37500013  0.62499986  1
  Cl  Cl73  1  0.25000019  0.12499987  0.87500015  1
  Cl  Cl74  1  0.37500014  0.62499987  0.75000019  1
  Cl  Cl75  1  0.87500014  0.25000018  0.12499986  1
