# generated using pymatgen
data_K2GeS3
_symmetry_space_group_name_H-M   'P 1'
_cell_length_a   6.37064023
_cell_length_b   8.31980599
_cell_length_c   8.31980652
_cell_angle_alpha   118.40259264
_cell_angle_beta   90.00003204
_cell_angle_gamma   90.00011665
_symmetry_Int_Tables_number   1
_chemical_formula_structural   K2GeS3
_chemical_formula_sum   'K4 Ge2 S6'
_cell_volume   387.88955232
_cell_formula_units_Z   2
loop_
 _symmetry_equiv_pos_site_id
 _symmetry_equiv_pos_as_xyz
  1  'x, y, z'
loop_
 _atom_site_type_symbol
 _atom_site_label
 _atom_site_symmetry_multiplicity
 _atom_site_fract_x
 _atom_site_fract_y
 _atom_site_fract_z
 _atom_site_occupancy
  K  K0  1  0.42950215  0.31759938  -0.00063439  1
  K  K1  1  0.92950174  0.68240044  0.00063404  1
  K  K2  1  0.42950211  -0.00063440  0.31759938  1
  K  K3  1  0.92950176  0.00063410  0.68240051  1
  Ge  Ge4  1  0.97529580  0.34776210  0.34776190  1
  Ge  Ge5  1  0.47529520  0.65223801  0.65223779  1
  S  S6  1  0.83628080  0.59638160  0.59638160  1
  S  S7  1  0.33628192  0.40361894  0.40361894  1
  S  S8  1  0.42321157  0.65291540  0.91308244  1
  S  S9  1  0.42321157  0.91308239  0.65291556  1
  S  S10  1  0.92321263  0.08691713  0.34708490  1
  S  S11  1  0.92321270  0.34708493  0.08691732  1
