# generated using pymatgen
data_K2PSe3
_symmetry_space_group_name_H-M   'P 1'
_cell_length_a   7.53598740
_cell_length_b   12.82663903
_cell_length_c   16.88702140
_cell_angle_alpha   89.99999947
_cell_angle_beta   89.99999870
_cell_angle_gamma   90.00000053
_symmetry_Int_Tables_number   1
_chemical_formula_structural   K2PSe3
_chemical_formula_sum   'K16 P8 Se24'
_cell_volume   1632.32296342
_cell_formula_units_Z   8
loop_
 _symmetry_equiv_pos_site_id
 _symmetry_equiv_pos_as_xyz
  1  'x, y, z'
loop_
 _atom_site_type_symbol
 _atom_site_label
 _atom_site_symmetry_multiplicity
 _atom_site_fract_x
 _atom_site_fract_y
 _atom_site_fract_z
 _atom_site_occupancy
  K  K0  1  0.91996093  0.34021895  0.62764852  1
  K  K1  1  0.41996088  0.15978103  0.37235150  1
  K  K2  1  0.08003907  0.84021897  0.87235146  1
  K  K3  1  0.58003912  0.65978103  0.12764852  1
  K  K4  1  0.56617672  0.34059016  0.12585407  1
  K  K5  1  0.06617669  0.15940983  0.87414591  1
  K  K6  1  0.43382328  0.84059017  0.37414596  1
  K  K7  1  -0.06617665  0.65940984  0.62585407  1
  K  K8  1  0.60563909  0.68367909  0.87458571  1
  K  K9  1  0.10563906  0.81632091  0.12541429  1
  K  K10  1  0.39436096  0.18367906  0.62541429  1
  K  K11  1  0.89436096  0.31632090  0.37458572  1
  K  K12  1  0.60333753  0.32551959  0.87737720  1
  K  K13  1  0.10333752  0.17448044  0.12262280  1
  K  K14  1  0.39666251  0.82551959  0.62262279  1
  K  K15  1  0.89666248  0.67448047  0.37737721  1
  P  P16  1  0.10335084  0.50054264  0.81346909  1
  P  P17  1  0.60335067  -0.00054261  0.18653157  1
  P  P18  1  0.89664903  0.00054268  0.68652984  1
  P  P19  1  0.39664933  0.49945738  0.31346863  1
  P  P20  1  0.10093204  0.50198863  0.95350525  1
  P  P21  1  0.60093205  -0.00198865  0.04649415  1
  P  P22  1  0.89906803  0.00198861  0.54649574  1
  P  P23  1  0.39906799  0.49801137  0.45350565  1
  Se  Se24  1  0.23557147  0.35566797  0.77491020  1
  Se  Se25  1  0.73557120  0.14433178  0.22508967  1
  Se  Se26  1  0.76442807  0.85566744  0.72509001  1
  Se  Se27  1  0.26442869  0.64433190  0.27491029  1
  Se  Se28  1  0.82271260  0.50199183  0.77414066  1
  Se  Se29  1  0.32271314  -0.00199183  0.22585920  1
  Se  Se30  1  0.17728848  0.00199181  0.72585956  1
  Se  Se31  1  0.67728705  0.49800817  0.27414076  1
  Se  Se32  1  0.11522969  0.49520238  0.48609782  1
  Se  Se33  1  0.61522862  0.00479763  0.51390192  1
  Se  Se34  1  0.88477002  0.99520237  0.01390223  1
  Se  Se35  1  0.38477042  0.50479763  -0.01390211  1
  Se  Se36  1  0.54015147  0.64000896  0.49253639  1
  Se  Se37  1  0.04015197  0.85999049  0.50746336  1
  Se  Se38  1  0.45984859  0.14000887  0.00746365  1
  Se  Se39  1  0.95984844  0.35999093  -0.00746356  1
  Se  Se40  1  0.54378817  0.35607560  0.48984559  1
  Se  Se41  1  0.04378868  0.14392492  0.51015413  1
  Se  Se42  1  0.45621190  0.85607571  0.01015445  1
  Se  Se43  1  0.95621172  0.64392447  0.98984567  1
  Se  Se44  1  0.25605729  0.35882253  0.27197564  1
  Se  Se45  1  0.75605676  0.14117811  0.72802464  1
  Se  Se46  1  0.74394260  0.85882264  0.22802432  1
  Se  Se47  1  0.24394283  0.64117761  0.77197556  1
