# generated using pymatgen
data_K3Al7S12
_symmetry_space_group_name_H-M   'P 1'
_cell_length_a   12.76000397
_cell_length_b   9.17104745
_cell_length_c   9.65817844
_cell_angle_alpha   84.76552583
_cell_angle_beta   90.00000743
_cell_angle_gamma   90.00000527
_symmetry_Int_Tables_number   1
_chemical_formula_structural   K3Al7S12
_chemical_formula_sum   'K6 Al14 S24'
_cell_volume   1125.51177633
_cell_formula_units_Z   2
loop_
 _symmetry_equiv_pos_site_id
 _symmetry_equiv_pos_as_xyz
  1  'x, y, z'
loop_
 _atom_site_type_symbol
 _atom_site_label
 _atom_site_symmetry_multiplicity
 _atom_site_fract_x
 _atom_site_fract_y
 _atom_site_fract_z
 _atom_site_occupancy
  K  K0  1  0.26474595  0.04029368  0.49645424  1
  K  K1  1  0.76474616  0.95970618  0.50354575  1
  K  K2  1  0.01819439  0.11957737  0.24126264  1
  K  K3  1  0.51819438  0.88042294  0.75873719  1
  K  K4  1  0.02138574  0.61924168  0.15667423  1
  K  K5  1  0.52138601  0.38075841  0.84332576  1
  Al  Al6  1  0.28240575  0.03313951  0.03613947  1
  Al  Al7  1  0.78240567  0.96686051  0.96386053  1
  Al  Al8  1  0.76358516  0.29461842  0.18400264  1
  Al  Al9  1  0.26358518  0.70538155  0.81599743  1
  Al  Al10  1  0.37161370  0.69889173  0.18623036  1
  Al  Al11  1  0.87161367  0.30110830  0.81376961  1
  Al  Al12  1  0.76870537  0.48447825  0.47379466  1
  Al  Al13  1  0.26870533  0.51552169  0.52620531  1
  Al  Al14  1  0.66937557  0.67389925  0.17189880  1
  Al  Al15  1  0.16937560  0.32610071  0.82810119  1
  Al  Al16  1  0.53752062  0.02390832  0.19870264  1
  Al  Al17  1  0.03752065  0.97609165  0.80129740  1
  Al  Al18  1  0.51990409  0.37477746  0.36505535  1
  Al  Al19  1  0.01990414  0.62522249  0.63494469  1
  S  S20  1  0.95463680  0.92357274  0.00216531  1
  S  S21  1  0.19868536  0.24575780  0.05011157  1
  S  S22  1  0.30359022  0.31888524  0.67881968  1
  S  S23  1  0.80359019  0.68111468  0.32118022  1
  S  S24  1  0.69868525  0.75424225  0.94988841  1
  S  S25  1  0.61211357  0.43277449  0.15773060  1
  S  S26  1  0.85282554  0.52593260  0.68102435  1
  S  S27  1  0.35282552  0.47406739  0.31897561  1
  S  S28  1  0.33496421  0.71930107  0.60453151  1
  S  S29  1  0.83496425  0.28069890  0.39546848  1
  S  S30  1  0.59947079  0.47333529  0.53876373  1
  S  S31  1  0.09947079  0.52666469  0.46123619  1
  S  S32  1  0.39025876  0.63928335  0.96734009  1
  S  S33  1  0.89025866  0.36071677  0.03265986  1
  S  S34  1  0.74552895  0.13463044  0.78382839  1
  S  S35  1  0.24552901  0.86536956  0.21617164  1
  S  S36  1  0.52764025  0.77961883  0.27506742  1
  S  S37  1  0.02764023  0.22038113  0.72493265  1
  S  S38  1  0.71681271  0.05478902  0.16581267  1
  S  S39  1  0.21681271  0.94521097  0.83418741  1
  S  S40  1  0.50299325  0.12848557  0.39620631  1
  S  S41  1  0.00299336  0.87151437  0.60379381  1
  S  S42  1  0.11211361  0.56722543  0.84226941  1
  S  S43  1  0.45463689  0.07642731  0.99783476  1
