# generated using pymatgen
data_K5PSeO4
_symmetry_space_group_name_H-M   'P 1'
_cell_length_a   7.88970883
_cell_length_b   7.88970247
_cell_length_c   8.39905689
_cell_angle_alpha   89.99850240
_cell_angle_beta   90.00021383
_cell_angle_gamma   90.00003755
_symmetry_Int_Tables_number   1
_chemical_formula_structural   K5PSeO4
_chemical_formula_sum   'K10 P2 Se2 O8'
_cell_volume   522.81991776
_cell_formula_units_Z   2
loop_
 _symmetry_equiv_pos_site_id
 _symmetry_equiv_pos_as_xyz
  1  'x, y, z'
loop_
 _atom_site_type_symbol
 _atom_site_label
 _atom_site_symmetry_multiplicity
 _atom_site_fract_x
 _atom_site_fract_y
 _atom_site_fract_z
 _atom_site_occupancy
  K  K0  1  0.74476579  0.75523135  0.21177749  1
  K  K1  1  0.25523149  0.75522951  0.21177111  1
  K  K2  1  0.74476879  0.24477406  0.21177175  1
  K  K3  1  0.25522837  0.24477517  0.21176546  1
  K  K4  1  0.75523471  0.74476285  0.78822486  1
  K  K5  1  0.24476811  0.74476460  0.78823080  1
  K  K6  1  0.75523462  0.25523432  0.78823170  1
  K  K7  1  0.24476816  0.25523289  0.78823784  1
  K  K8  1  -0.00000061  0.50000019  0.51797619  1
  K  K9  1  0.50000078  -0.00000086  0.48201768  1
  P  P10  1  0.49999878  0.49997225  0.50000770  1
  P  P11  1  0.00000639  -0.00000899  0.50001273  1
  Se  Se12  1  -0.00000415  0.50000554  0.02519171  1
  Se  Se13  1  0.50000410  -0.00000424  -0.02518502  1
  O  O14  1  0.49999708  0.33695980  0.39414676  1
  O  O15  1  0.49999680  0.66304036  0.39414717  1
  O  O16  1  0.83699834  0.00000093  0.39417163  1
  O  O17  1  0.16300351  0.00000071  0.39417097  1
  O  O18  1  0.00000275  0.16301220  0.60582792  1
  O  O19  1  0.00000241  0.83701008  0.60580910  1
  O  O20  1  0.66303434  0.50000331  0.60584583  1
  O  O21  1  0.33695943  0.50000396  0.60584862  1
