# generated using pymatgen
data_KAlI4
_symmetry_space_group_name_H-M   'P 1'
_cell_length_a   8.37702454
_cell_length_b   8.52445245
_cell_length_c   16.69284725
_cell_angle_alpha   85.52278321
_cell_angle_beta   89.99997233
_cell_angle_gamma   90.00000391
_symmetry_Int_Tables_number   1
_chemical_formula_structural   KAlI4
_chemical_formula_sum   'K4 Al4 I16'
_cell_volume   1188.39113496
_cell_formula_units_Z   4
loop_
 _symmetry_equiv_pos_site_id
 _symmetry_equiv_pos_as_xyz
  1  'x, y, z'
loop_
 _atom_site_type_symbol
 _atom_site_label
 _atom_site_symmetry_multiplicity
 _atom_site_fract_x
 _atom_site_fract_y
 _atom_site_fract_z
 _atom_site_occupancy
  K  K0  1  0.50454610  0.74470180  0.86164851  1
  K  K1  1  0.99545381  0.74470179  0.36164848  1
  K  K2  1  0.49545434  0.25529843  0.13835136  1
  K  K3  1  0.00454613  0.25529824  0.63835153  1
  Al  Al4  1  0.14113230  0.24758802  0.36042415  1
  Al  Al5  1  0.64113241  0.75241184  0.13957584  1
  Al  Al6  1  0.35886762  0.24758812  0.86042417  1
  Al  Al7  1  0.85886761  0.75241193  0.63957583  1
  I  I8  1  0.25263299  0.42237473  0.46629727  1
  I  I9  1  0.61397924  0.58326337  0.27337651  1
  I  I10  1  0.11397939  0.41673644  0.22662336  1
  I  I11  1  0.66523160  0.97917248  0.66047979  1
  I  I12  1  0.33476838  0.02082751  0.33952029  1
  I  I13  1  0.86673861  0.14199663  0.40717375  1
  I  I14  1  0.75263331  0.57762532  0.03370274  1
  I  I15  1  0.16523172  0.02082778  0.83952035  1
  I  I16  1  0.74736689  0.57762531  0.53370271  1
  I  I17  1  0.83476837  0.97917223  0.16047971  1
  I  I18  1  0.88602059  0.58326352  0.77337662  1
  I  I19  1  0.24736672  0.42237466  0.96629721  1
  I  I20  1  0.13326120  0.85800336  0.59282624  1
  I  I21  1  0.63326095  0.14199676  0.90717371  1
  I  I22  1  0.36673897  0.85800321  0.09282630  1
  I  I23  1  0.38602074  0.41673651  0.72662354  1
