# generated using pymatgen
data_KAlSiO4
_symmetry_space_group_name_H-M   'P 1'
_cell_length_a   9.35036447
_cell_length_b   9.35031579
_cell_length_c   9.35086695
_cell_angle_alpha   90.24267680
_cell_angle_beta   90.24213274
_cell_angle_gamma   90.24079200
_symmetry_Int_Tables_number   1
_chemical_formula_structural   KAlSiO4
_chemical_formula_sum   'K6 Al6 Si6 O24'
_cell_volume   817.51372838
_cell_formula_units_Z   6
loop_
 _symmetry_equiv_pos_site_id
 _symmetry_equiv_pos_as_xyz
  1  'x, y, z'
loop_
 _atom_site_type_symbol
 _atom_site_label
 _atom_site_symmetry_multiplicity
 _atom_site_fract_x
 _atom_site_fract_y
 _atom_site_fract_z
 _atom_site_occupancy
  K  K0  1  0.30996488  0.69545263  0.30649159  1
  K  K1  1  0.69544864  0.30649134  0.30996402  1
  K  K2  1  0.30648902  0.30995936  0.69545992  1
  K  K3  1  0.19545982  0.80996418  0.80648871  1
  K  K4  1  0.80648834  0.19545170  0.80996061  1
  K  K5  1  0.80996597  0.80649540  0.19545402  1
  Al  Al6  1  0.50484783  0.75221658  0.99656823  1
  Al  Al7  1  0.99655017  0.50483577  0.75221448  1
  Al  Al8  1  0.75221885  0.99655144  0.50482377  1
  Al  Al9  1  0.00482599  0.49655987  0.25221678  1
  Al  Al10  1  0.25221313  0.00483744  0.49654776  1
  Al  Al11  1  0.49656218  0.25222089  0.00484637  1
  Si  Si12  1  1.00224126  0.75120040  0.50194418  1
  Si  Si13  1  0.50198941  1.00226835  0.75117677  1
  Si  Si14  1  0.75115396  0.50198031  1.00228770  1
  Si  Si15  1  0.50227786  0.00198089  0.25117536  1
  Si  Si16  1  0.25119975  0.50224993  0.00198760  1
  Si  Si17  1  0.00197214  0.25115619  0.50224858  1
  O  O18  1  0.65939202  0.64866027  0.98631782  1
  O  O19  1  0.98632662  0.65938184  0.64869101  1
  O  O20  1  0.64867251  0.98632286  0.65937848  1
  O  O21  1  0.34935446  0.64789641  0.02126189  1
  O  O22  1  0.02620606  0.65229328  0.35843656  1
  O  O23  1  0.36071136  0.97309158  0.34820581  1
  O  O24  1  0.65230705  0.35845000  0.02619549  1
  O  O25  1  0.97309524  0.34821522  0.36069786  1
  O  O26  1  0.64788200  0.02126440  0.34936344  1
  O  O27  1  0.34819460  0.36071266  0.97308362  1
  O  O28  1  0.02126860  0.34935630  0.64789700  1
  O  O29  1  0.35843917  0.02620031  0.65229962  1
  O  O30  1  0.15229766  0.52620660  0.85843007  1
  O  O31  1  0.47308520  0.86070187  0.84821390  1
  O  O32  1  0.14788816  0.84934481  0.52126842  1
  O  O33  1  0.84821069  0.47308934  0.86069856  1
  O  O34  1  0.52125961  0.14788975  0.84936018  1
  O  O35  1  0.85844405  0.15230616  0.52620290  1
  O  O36  1  0.15937480  0.48632034  0.14868810  1
  O  O37  1  0.48631969  0.14865646  0.15938847  1
  O  O38  1  0.14867148  0.15939654  0.48632092  1
  O  O39  1  0.84936429  0.52126328  0.14789183  1
  O  O40  1  0.52618991  0.85844501  0.15229359  1
  O  O41  1  0.86071558  0.84820207  0.47309801  1
