# generated using pymatgen
data_KAs3H2O9
_symmetry_space_group_name_H-M   'P 1'
_cell_length_a   7.35194016
_cell_length_b   8.10815185
_cell_length_c   8.47149007
_cell_angle_alpha   109.62277179
_cell_angle_beta   109.25234132
_cell_angle_gamma   103.33748580
_symmetry_Int_Tables_number   1
_chemical_formula_structural   KAs3H2O9
_chemical_formula_sum   'K2 As6 H4 O18'
_cell_volume   414.64491109
_cell_formula_units_Z   2
loop_
 _symmetry_equiv_pos_site_id
 _symmetry_equiv_pos_as_xyz
  1  'x, y, z'
loop_
 _atom_site_type_symbol
 _atom_site_label
 _atom_site_symmetry_multiplicity
 _atom_site_fract_x
 _atom_site_fract_y
 _atom_site_fract_z
 _atom_site_occupancy
  K  K0  1  0.29557477  0.82607209  0.04567393  1
  K  K1  1  0.70442523  0.17392792  0.95432607  1
  As  As2  1  0.37046543  0.36531904  0.18491968  1
  As  As3  1  0.15520367  0.81224620  0.44920386  1
  As  As4  1  0.15835145  0.44284231  0.47638094  1
  As  As5  1  0.84164855  0.55715769  0.52361907  1
  As  As6  1  0.84479633  0.18775378  0.55079612  1
  As  As7  1  0.62953458  0.63468097  0.81508033  1
  H  H8  1  0.85435793  0.62488765  0.07016538  1
  H  H9  1  0.69815032  0.86398428  0.42725107  1
  H  H10  1  0.30184969  0.13601572  0.57274891  1
  H  H11  1  0.14564205  0.37511233  0.92983462  1
  O  O12  1  0.27724817  0.47700968  0.05062665  1
  O  O13  1  0.39907343  0.17097231  0.07105673  1
  O  O14  1  0.05935420  0.78238098  0.22928640  1
  O  O15  1  0.18269347  0.30613989  0.26616121  1
  O  O16  1  0.90845920  0.44632120  0.33011697  1
  O  O17  1  0.59739389  0.55992441  0.36767540  1
  O  O18  1  0.65081955  0.95908831  0.39764981  1
  O  O19  1  0.02415766  0.20040709  0.45458821  1
  O  O20  1  0.69356658  0.31907356  0.49958363  1
  O  O21  1  0.30643342  0.68092644  0.50041638  1
  O  O22  1  0.97584234  0.79959291  0.54541179  1
  O  O23  1  0.34918046  0.04091168  0.60235016  1
  O  O24  1  0.40260610  0.44007560  0.63232462  1
  O  O25  1  0.09154081  0.55367880  0.66988304  1
  O  O26  1  0.81730653  0.69386012  0.73383880  1
  O  O27  1  0.94064580  0.21761900  0.77071359  1
  O  O28  1  0.60092659  0.82902771  0.92894329  1
  O  O29  1  0.72275181  0.52299031  0.94937334  1
