# generated using pymatgen
data_KAsF6
_symmetry_space_group_name_H-M   'P 1'
_cell_length_a   6.18366506
_cell_length_b   6.18366520
_cell_length_c   6.18366371
_cell_angle_alpha   59.99963367
_cell_angle_beta   59.99964361
_cell_angle_gamma   59.99961778
_symmetry_Int_Tables_number   1
_chemical_formula_structural   KAsF6
_chemical_formula_sum   'K1 As1 F6'
_cell_volume   167.19341334
_cell_formula_units_Z   1
loop_
 _symmetry_equiv_pos_site_id
 _symmetry_equiv_pos_as_xyz
  1  'x, y, z'
loop_
 _atom_site_type_symbol
 _atom_site_label
 _atom_site_symmetry_multiplicity
 _atom_site_fract_x
 _atom_site_fract_y
 _atom_site_fract_z
 _atom_site_occupancy
  K  K0  1  0.49999994  0.49999997  0.49999998  1
  As  As1  1  -0.00000002  -0.00000000  0.00000003  1
  F  F2  1  0.20236731  0.79763211  0.20236731  1
  F  F3  1  0.20236719  0.20236723  0.79763218  1
  F  F4  1  0.79763211  0.20236727  0.20236729  1
  F  F5  1  0.20236791  0.79763273  0.79763270  1
  F  F6  1  0.79763281  0.79763279  0.20236783  1
  F  F7  1  0.79763274  0.20236790  0.79763268  1
