# generated using pymatgen
data_KBiSCl2
_symmetry_space_group_name_H-M   'P 1'
_cell_length_a   3.84647771
_cell_length_b   7.40908028
_cell_length_c   11.36015419
_cell_angle_alpha   90.00004302
_cell_angle_beta   90.00000045
_cell_angle_gamma   105.08902843
_symmetry_Int_Tables_number   1
_chemical_formula_structural   KBiSCl2
_chemical_formula_sum   'K2 Bi2 S2 Cl4'
_cell_volume   312.58932618
_cell_formula_units_Z   2
loop_
 _symmetry_equiv_pos_site_id
 _symmetry_equiv_pos_as_xyz
  1  'x, y, z'
loop_
 _atom_site_type_symbol
 _atom_site_label
 _atom_site_symmetry_multiplicity
 _atom_site_fract_x
 _atom_site_fract_y
 _atom_site_fract_z
 _atom_site_occupancy
  K  K0  1  0.00000018  0.00000021  0.49999982  1
  K  K1  1  0.00000016  0.00000018  0.00000017  1
  Bi  Bi2  1  0.24901255  0.49821322  0.75000048  1
  Bi  Bi3  1  0.75098602  0.50179099  0.24999948  1
  S  S4  1  0.87563138  0.75163097  0.75000018  1
  S  S5  1  0.12436893  0.24836492  0.24999971  1
  Cl  Cl6  1  0.65525115  0.31040768  0.58697813  1
  Cl  Cl7  1  0.34474917  0.68959201  0.41302164  1
  Cl  Cl8  1  0.34474890  0.68959141  0.08697671  1
  Cl  Cl9  1  0.65525156  0.31040841  0.91302369  1
