# generated using pymatgen
data_Li2AlF5
_symmetry_space_group_name_H-M   'P 1'
_cell_length_a   5.26202757
_cell_length_b   5.26197959
_cell_length_c   6.84809316
_cell_angle_alpha   90.00243796
_cell_angle_beta   89.99674196
_cell_angle_gamma   105.02066620
_symmetry_Int_Tables_number   1
_chemical_formula_structural   Li2AlF5
_chemical_formula_sum   'Li4 Al2 F10'
_cell_volume   183.13599480
_cell_formula_units_Z   2
loop_
 _symmetry_equiv_pos_site_id
 _symmetry_equiv_pos_as_xyz
  1  'x, y, z'
loop_
 _atom_site_type_symbol
 _atom_site_label
 _atom_site_symmetry_multiplicity
 _atom_site_fract_x
 _atom_site_fract_y
 _atom_site_fract_z
 _atom_site_occupancy
  Li  Li0  1  0.55297434  0.22214327  0.74999017  1
  Li  Li1  1  0.44703489  -0.22214591  0.25001020  1
  Li  Li2  1  0.22212943  0.55296155  0.75000931  1
  Li  Li3  1  -0.22213610  0.44704300  0.24999128  1
  Al  Al4  1  0.00004639  0.00005947  0.49992768  1
  Al  Al5  1  0.00005201  0.00006475  0.00008032  1
  F  F6  1  0.72784589  0.72784364  0.42663160  1
  F  F7  1  0.21907321  0.78090101  -0.00001989  1
  F  F8  1  0.90457798  0.90456392  0.74999405  1
  F  F9  1  0.78092523  0.21908403  -0.00000223  1
  F  F10  1  0.78091407  0.21908194  0.50003520  1
  F  F11  1  0.21908490  0.78090337  0.49998599  1
  F  F12  1  0.27213020  0.27213217  0.57336848  1
  F  F13  1  0.72784423  0.72785627  0.07337040  1
  F  F14  1  0.27212903  0.27211660  0.92663267  1
  F  F15  1  0.09537431  0.09539093  0.24999477  1
