# generated using pymatgen
data_Li2GeS3
_symmetry_space_group_name_H-M   'P 1'
_cell_length_a   6.19878111
_cell_length_b   6.81480764
_cell_length_c   6.81481166
_cell_angle_alpha   119.56638937
_cell_angle_beta   89.99995959
_cell_angle_gamma   90.00001837
_symmetry_Int_Tables_number   1
_chemical_formula_structural   Li2GeS3
_chemical_formula_sum   'Li4 Ge2 S6'
_cell_volume   250.39487827
_cell_formula_units_Z   2
loop_
 _symmetry_equiv_pos_site_id
 _symmetry_equiv_pos_as_xyz
  1  'x, y, z'
loop_
 _atom_site_type_symbol
 _atom_site_label
 _atom_site_symmetry_multiplicity
 _atom_site_fract_x
 _atom_site_fract_y
 _atom_site_fract_z
 _atom_site_occupancy
  Li  Li0  1  0.48388026  0.31975871  0.98609047  1
  Li  Li1  1  0.98387980  0.68024250  0.01390997  1
  Li  Li2  1  0.48388014  0.98609000  0.31975827  1
  Li  Li3  1  0.98388002  0.01391041  0.68024235  1
  Ge  Ge4  1  0.96419866  0.33276918  0.33276857  1
  Ge  Ge5  1  0.46419860  0.66723067  0.66723142  1
  S  S6  1  0.84261235  0.65055952  0.65055952  1
  S  S7  1  0.34261273  0.34944022  0.34944068  1
  S  S8  1  0.37121666  0.65539520  0.96995572  1
  S  S9  1  0.37121716  0.96995594  0.65539474  1
  S  S10  1  0.87121637  0.03004333  0.34460463  1
  S  S11  1  0.87121720  0.34460433  0.03004366  1
