# generated using pymatgen
data_Li2PSe3
_symmetry_space_group_name_H-M   'P 1'
_cell_length_a   6.49829289
_cell_length_b   11.26450709
_cell_length_c   14.09777617
_cell_angle_alpha   89.99999742
_cell_angle_beta   89.99999118
_cell_angle_gamma   89.99999456
_symmetry_Int_Tables_number   1
_chemical_formula_structural   Li2PSe3
_chemical_formula_sum   'Li16 P8 Se24'
_cell_volume   1031.95815078
_cell_formula_units_Z   8
loop_
 _symmetry_equiv_pos_site_id
 _symmetry_equiv_pos_as_xyz
  1  'x, y, z'
loop_
 _atom_site_type_symbol
 _atom_site_label
 _atom_site_symmetry_multiplicity
 _atom_site_fract_x
 _atom_site_fract_y
 _atom_site_fract_z
 _atom_site_occupancy
  Li  Li0  1  0.94944451  0.32119324  0.63479991  1
  Li  Li1  1  0.44944490  0.17880677  0.36520031  1
  Li  Li2  1  0.05055493  0.82119331  0.86519998  1
  Li  Li3  1  0.55055542  0.67880662  0.13479976  1
  Li  Li4  1  0.56358706  0.32015875  0.13289136  1
  Li  Li5  1  0.06358704  0.17984113  0.86710868  1
  Li  Li6  1  0.43641269  0.82015885  0.36710864  1
  Li  Li7  1  -0.06358703  0.67984120  0.63289129  1
  Li  Li8  1  0.59570723  0.65024789  0.88563780  1
  Li  Li9  1  0.09570756  0.84975218  0.11436276  1
  Li  Li10  1  0.40429259  0.15024796  0.61436228  1
  Li  Li11  1  0.90429258  0.34975227  0.38563737  1
  Li  Li12  1  0.59829283  0.35182965  0.88709306  1
  Li  Li13  1  0.09829283  0.14817028  0.11290674  1
  Li  Li14  1  0.40170708  0.85182965  0.61290688  1
  Li  Li15  1  0.90170723  0.64817043  0.38709337  1
  P  P16  1  0.10985177  0.50163956  0.80568201  1
  P  P17  1  0.60985190  -0.00163962  0.19431800  1
  P  P18  1  0.89014815  0.00163962  0.69431800  1
  P  P19  1  0.39014834  0.49836036  0.30568196  1
  P  P20  1  0.09098454  0.50057188  0.96650244  1
  P  P21  1  0.59098462  -0.00057186  0.03349755  1
  P  P22  1  0.90901531  0.00057186  0.53349754  1
  P  P23  1  0.40901537  0.49942815  0.46650242  1
  Se  Se24  1  0.27402805  0.33638087  0.76746886  1
  Se  Se25  1  0.77402818  0.16361905  0.23253106  1
  Se  Se26  1  0.72597195  0.83638090  0.73253111  1
  Se  Se27  1  0.22597207  0.66361907  0.26746890  1
  Se  Se28  1  0.78853241  0.50058627  0.75377683  1
  Se  Se29  1  0.28853252  -0.00058621  0.24622327  1
  Se  Se30  1  0.21146754  0.00058630  0.74622320  1
  Se  Se31  1  0.71146775  0.49941376  0.25377672  1
  Se  Se32  1  0.08032651  0.49896202  0.51042860  1
  Se  Se33  1  0.58032638  0.00103786  0.48957137  1
  Se  Se34  1  0.91967365  0.99896198  0.98957134  1
  Se  Se35  1  0.41967347  0.50103785  0.01042868  1
  Se  Se36  1  0.57719764  0.66529542  0.50080073  1
  Se  Se37  1  0.07719767  0.83470461  0.49919927  1
  Se  Se38  1  0.42280245  0.16529540  -0.00080075  1
  Se  Se39  1  0.92280218  0.33470464  0.00080072  1
  Se  Se40  1  0.57997775  0.33525283  0.50220257  1
  Se  Se41  1  0.07997732  0.16474728  0.49779741  1
  Se  Se42  1  0.42002232  0.83525285  -0.00220257  1
  Se  Se43  1  0.92002258  0.66474734  0.00220252  1
  Se  Se44  1  0.22837777  0.33264589  0.26748106  1
  Se  Se45  1  0.72837740  0.16735400  0.73251899  1
  Se  Se46  1  0.77162246  0.83264585  0.23251892  1
  Se  Se47  1  0.27162253  0.66735403  0.76748107  1
