# generated using pymatgen
data_Li2PHO4
_symmetry_space_group_name_H-M   'P 1'
_cell_length_a   6.17558865
_cell_length_b   6.17569495
_cell_length_c   7.73501664
_cell_angle_alpha   90.00122939
_cell_angle_beta   89.99913107
_cell_angle_gamma   120.00063518
_symmetry_Int_Tables_number   1
_chemical_formula_structural   Li2PHO4
_chemical_formula_sum   'Li6 P3 H3 O12'
_cell_volume   255.47787824
_cell_formula_units_Z   3
loop_
 _symmetry_equiv_pos_site_id
 _symmetry_equiv_pos_as_xyz
  1  'x, y, z'
loop_
 _atom_site_type_symbol
 _atom_site_label
 _atom_site_symmetry_multiplicity
 _atom_site_fract_x
 _atom_site_fract_y
 _atom_site_fract_z
 _atom_site_occupancy
  Li  Li0  1  0.25149757  0.12576658  -0.00000548  1
  Li  Li1  1  0.87424603  0.12573413  0.33333156  1
  Li  Li2  1  0.87422893  0.74849641  0.66667234  1
  Li  Li3  1  0.50111510  0.75055641  -0.00000717  1
  Li  Li4  1  0.24944786  0.75053794  0.33332123  1
  Li  Li5  1  0.24942252  0.49887827  0.66667800  1
  P  P6  1  1.01094438  0.50545464  -0.00000212  1
  P  P7  1  0.49451151  0.50544763  0.33332392  1
  P  P8  1  0.49452364  -0.01093532  0.66667265  1
  H  H9  1  0.65054077  0.30109362  0.16666464  1
  H  H10  1  0.69891246  0.34946185  0.49999671  1
  H  H11  1  0.65053982  0.34944321  0.83333839  1
  O  O12  1  0.17367929  0.41147683  0.91348408  1
  O  O13  1  0.58855722  0.76225233  0.24681186  1
  O  O14  1  0.23776621  0.82629785  0.58014034  1
  O  O15  1  0.17369934  0.76224765  0.08652974  1
  O  O16  1  0.58854716  0.82629707  0.75318540  1
  O  O17  1  0.23778794  0.41147120  0.41985881  1
  O  O18  1  0.83886290  0.29870100  0.13333236  1
  O  O19  1  0.70133393  0.54017262  0.46665783  1
  O  O20  1  0.45983131  0.16111320  0.79999505  1
  O  O21  1  0.83885224  0.54017355  0.86667455  1
  O  O22  1  0.70131902  0.16114701  0.53334220  1
  O  O23  1  0.45983083  0.29871631  0.20000310  1
