# generated using pymatgen
data_Li2SeO4
_symmetry_space_group_name_H-M   'P 1'
_cell_length_a   5.75588974
_cell_length_b   5.75587584
_cell_length_c   6.33184158
_cell_angle_alpha   104.00936787
_cell_angle_beta   104.00782821
_cell_angle_gamma   117.86605177
_symmetry_Int_Tables_number   1
_chemical_formula_structural   Li2SeO4
_chemical_formula_sum   'Li4 Se2 O8'
_cell_volume   163.78066143
_cell_formula_units_Z   2
loop_
 _symmetry_equiv_pos_site_id
 _symmetry_equiv_pos_as_xyz
  1  'x, y, z'
loop_
 _atom_site_type_symbol
 _atom_site_label
 _atom_site_symmetry_multiplicity
 _atom_site_fract_x
 _atom_site_fract_y
 _atom_site_fract_z
 _atom_site_occupancy
  Li  Li0  1  0.18861517  0.81138785  0.25000261  1
  Li  Li1  1  0.56139154  0.43860867  0.25000032  1
  Li  Li2  1  0.81138490  0.18861067  0.74999854  1
  Li  Li3  1  0.43860816  0.56138924  0.74999882  1
  Se  Se4  1  0.87497106  0.12503008  0.24999599  1
  Se  Se5  1  0.12503311  0.87502025  0.74999919  1
  O  O6  1  0.84707796  0.30617666  0.08500846  1
  O  O7  1  0.22119307  0.26206279  0.41498432  1
  O  O8  1  0.69382115  0.15292217  0.41499260  1
  O  O9  1  0.73793705  0.77881005  0.08501847  1
  O  O10  1  0.15292409  0.69380626  0.91500667  1
  O  O11  1  0.77881013  0.73793609  0.58501814  1
  O  O12  1  0.26205292  0.22116488  0.91497060  1
  O  O13  1  0.30617971  0.84707433  0.58500527  1
