# generated using pymatgen
data_Li2S2O7
_symmetry_space_group_name_H-M   'P 1'
_cell_length_a   6.24223098
_cell_length_b   7.01477670
_cell_length_c   6.47667534
_cell_angle_alpha   67.65890107
_cell_angle_beta   80.97793719
_cell_angle_gamma   76.46390272
_symmetry_Int_Tables_number   1
_chemical_formula_structural   Li2S2O7
_chemical_formula_sum   'Li4 S4 O14'
_cell_volume   254.29877776
_cell_formula_units_Z   2
loop_
 _symmetry_equiv_pos_site_id
 _symmetry_equiv_pos_as_xyz
  1  'x, y, z'
loop_
 _atom_site_type_symbol
 _atom_site_label
 _atom_site_symmetry_multiplicity
 _atom_site_fract_x
 _atom_site_fract_y
 _atom_site_fract_z
 _atom_site_occupancy
  Li  Li0  1  0.05894498  0.79652653  0.21776930  1
  Li  Li1  1  0.94105515  0.20347303  0.78223113  1
  Li  Li2  1  0.67128070  0.81168416  0.60114153  1
  Li  Li3  1  0.32871888  0.18831389  0.39885917  1
  S  S4  1  0.16251977  0.77391834  0.70972057  1
  S  S5  1  0.83749378  0.22610363  0.29024688  1
  S  S6  1  0.39640530  0.32093482  0.84828386  1
  S  S7  1  0.60360064  0.67905801  0.15172590  1
  O  O8  1  0.00734720  0.74447665  0.58112621  1
  O  O9  1  -0.00733830  0.25552474  0.41887928  1
  O  O10  1  0.34765437  0.86191180  0.56692074  1
  O  O11  1  0.65232118  0.13807885  0.43309340  1
  O  O12  1  0.05753966  0.88303320  0.86277604  1
  O  O13  1  0.94245942  0.11696924  0.13722224  1
  O  O14  1  0.25799149  0.54728620  0.88777393  1
  O  O15  1  0.74201680  0.45269364  0.11223550  1
  O  O16  1  0.39397988  0.18519355  0.08111588  1
  O  O17  1  0.60601886  0.81481654  0.91886968  1
  O  O18  1  0.25742780  0.28379676  0.71127487  1
  O  O19  1  0.74257318  0.71620592  0.28872995  1
  O  O20  1  0.61127020  0.36393054  0.74161716  1
  O  O21  1  0.38871906  0.63606996  0.25838678  1
