# generated using pymatgen
data_Li2SO4
_symmetry_space_group_name_H-M   'P 1'
_cell_length_a   5.59259827
_cell_length_b   5.49157215
_cell_length_c   6.16252450
_cell_angle_alpha   76.64326887
_cell_angle_beta   63.01788151
_cell_angle_gamma   59.39180008
_symmetry_Int_Tables_number   1
_chemical_formula_structural   Li2SO4
_chemical_formula_sum   'Li4 S2 O8'
_cell_volume   145.16273448
_cell_formula_units_Z   2
loop_
 _symmetry_equiv_pos_site_id
 _symmetry_equiv_pos_as_xyz
  1  'x, y, z'
loop_
 _atom_site_type_symbol
 _atom_site_label
 _atom_site_symmetry_multiplicity
 _atom_site_fract_x
 _atom_site_fract_y
 _atom_site_fract_z
 _atom_site_occupancy
  Li  Li0  1  0.18981105  0.62036084  0.24999849  1
  Li  Li1  1  0.56017847  0.87964918  0.24998604  1
  Li  Li2  1  0.81018898  0.37963914  0.75000142  1
  Li  Li3  1  0.43982152  0.12035075  0.75001401  1
  S  S4  1  0.87501196  0.25000022  0.24999495  1
  S  S5  1  0.12498858  0.74999880  0.75000472  1
  O  O6  1  0.19865610  0.06168399  0.09734495  1
  O  O7  1  0.85767600  0.43830546  0.40267240  1
  O  O8  1  0.73964601  0.06169370  0.40269512  1
  O  O9  1  0.70402888  0.43831322  0.09735180  1
  O  O10  1  0.80134523  0.93831582  0.90265447  1
  O  O11  1  0.14232391  0.56169510  0.59732783  1
  O  O12  1  0.29597057  0.56168802  0.90264758  1
  O  O13  1  0.26035274  0.93830576  0.59730621  1
