# generated using pymatgen
data_Li2TeO4
_symmetry_space_group_name_H-M   'P 1'
_cell_length_a   6.44781636
_cell_length_b   6.44782792
_cell_length_c   11.98666825
_cell_angle_alpha   85.76312454
_cell_angle_beta   85.76310418
_cell_angle_gamma   94.63130390
_symmetry_Int_Tables_number   1
_chemical_formula_structural   Li2TeO4
_chemical_formula_sum   'Li12 Te6 O24'
_cell_volume   493.75340211
_cell_formula_units_Z   6
loop_
 _symmetry_equiv_pos_site_id
 _symmetry_equiv_pos_as_xyz
  1  'x, y, z'
loop_
 _atom_site_type_symbol
 _atom_site_label
 _atom_site_symmetry_multiplicity
 _atom_site_fract_x
 _atom_site_fract_y
 _atom_site_fract_z
 _atom_site_occupancy
  Li  Li0  1  0.21497463  0.78502520  0.74999999  1
  Li  Li1  1  0.64590648  0.61848541  0.65878476  1
  Li  Li2  1  0.06826543  0.93173381  0.25000048  1
  Li  Li3  1  0.78502553  0.21497464  0.25000018  1
  Li  Li4  1  0.93173318  0.06826518  0.74999961  1
  Li  Li5  1  0.35409427  0.38151422  0.34121511  1
  Li  Li6  1  0.52703913  0.88196670  0.90985434  1
  Li  Li7  1  0.11804016  0.47295676  0.59014626  1
  Li  Li8  1  0.38151280  0.35409495  0.84121560  1
  Li  Li9  1  0.88196404  0.52704094  0.40985446  1
  Li  Li10  1  0.61848653  0.64590584  0.15878395  1
  Li  Li11  1  0.47295879  0.11803741  0.09014637  1
  Te  Te12  1  0.48913505  0.08693420  0.61916922  1
  Te  Te13  1  0.51086859  0.91306661  0.38083102  1
  Te  Te14  1  0.91306609  0.51087046  0.88082674  1
  Te  Te15  1  -0.00000262  0.00000044  0.49999988  1
  Te  Te16  1  0.08693402  0.48912954  0.11917312  1
  Te  Te17  1  0.00000000  -0.00000028  0.00000026  1
  O  O18  1  0.91728726  0.71355614  0.54474742  1
  O  O19  1  0.81540311  0.49633873  0.04280658  1
  O  O20  1  0.64865417  0.54180767  0.83433636  1
  O  O21  1  0.10920406  0.79803221  0.11182799  1
  O  O22  1  0.54180926  0.64865136  0.33433744  1
  O  O23  1  0.45818918  0.35134854  0.66566178  1
  O  O24  1  0.79802826  0.10920560  0.61182750  1
  O  O25  1  0.98597817  0.82550333  0.86821152  1
  O  O26  1  0.35134635  0.45819120  0.16566300  1
  O  O27  1  0.71355640  0.91728769  0.04474743  1
  O  O28  1  0.20197109  0.89079404  0.38817226  1
  O  O29  1  0.08271357  0.28644342  0.45525270  1
  O  O30  1  0.51181520  0.08323752  0.24677328  1
  O  O31  1  0.82550116  0.98597745  0.36821143  1
  O  O32  1  0.18459666  0.50366105  0.95719332  1
  O  O33  1  0.08323647  0.51181630  0.74677431  1
  O  O34  1  0.89079599  0.20196758  0.88817187  1
  O  O35  1  0.28644339  0.08271255  0.95525268  1
  O  O36  1  0.48818431  0.91676351  0.75322664  1
  O  O37  1  0.49633791  0.81540311  0.54280701  1
  O  O38  1  0.01402180  0.17449642  0.13178839  1
  O  O39  1  0.17449868  0.01402223  0.63178893  1
  O  O40  1  0.91676416  0.48818367  0.25322594  1
  O  O41  1  0.50366130  0.18459663  0.45719288  1
