# generated using pymatgen
data_Li3Al7S12
_symmetry_space_group_name_H-M   'P 1'
_cell_length_a   12.44023384
_cell_length_b   9.12822530
_cell_length_c   9.45989689
_cell_angle_alpha   83.18189035
_cell_angle_beta   90.00000986
_cell_angle_gamma   89.99999950
_symmetry_Int_Tables_number   1
_chemical_formula_structural   Li3Al7S12
_chemical_formula_sum   'Li6 Al14 S24'
_cell_volume   1066.64295689
_cell_formula_units_Z   2
loop_
 _symmetry_equiv_pos_site_id
 _symmetry_equiv_pos_as_xyz
  1  'x, y, z'
loop_
 _atom_site_type_symbol
 _atom_site_label
 _atom_site_symmetry_multiplicity
 _atom_site_fract_x
 _atom_site_fract_y
 _atom_site_fract_z
 _atom_site_occupancy
  Li  Li0  1  0.31998211  -0.04727319  0.41533632  1
  Li  Li1  1  0.81998194  0.04727316  0.58466405  1
  Li  Li2  1  0.02542925  0.15739494  0.10207945  1
  Li  Li3  1  0.52542928  0.84260476  0.89792072  1
  Li  Li4  1  -0.01965334  0.63767287  0.23278572  1
  Li  Li5  1  0.48034701  0.36232560  0.76721356  1
  Al  Al6  1  0.28938743  0.03430866  0.01887985  1
  Al  Al7  1  0.78938734  0.96569159  0.98112018  1
  Al  Al8  1  0.76851167  0.28061026  0.20524995  1
  Al  Al9  1  0.26851159  0.71938978  0.79475020  1
  Al  Al10  1  0.37167266  0.68915224  0.16788615  1
  Al  Al11  1  0.87167278  0.31084804  0.83211400  1
  Al  Al12  1  0.75968394  0.47077567  0.49126062  1
  Al  Al13  1  0.25968395  0.52922440  0.50873941  1
  Al  Al14  1  0.67151420  0.65917691  0.17099091  1
  Al  Al15  1  0.17151421  0.34082317  0.82900902  1
  Al  Al16  1  0.54003475  0.02089681  0.19119411  1
  Al  Al17  1  0.04003464  0.97910331  0.80880577  1
  Al  Al18  1  0.50603744  0.36089143  0.36017562  1
  Al  Al19  1  0.00603743  0.63910865  0.63982420  1
  S  S20  1  0.96719573  0.92180171  0.02728498  1
  S  S21  1  0.20437523  0.24396371  0.05334809  1
  S  S22  1  0.30299952  0.33388378  0.67012130  1
  S  S23  1  0.80299960  0.66611614  0.32987863  1
  S  S24  1  0.70437520  0.75603647  0.94665190  1
  S  S25  1  0.61309234  0.41811673  0.15824116  1
  S  S26  1  0.83888674  0.53233326  0.69821869  1
  S  S27  1  0.33888672  0.46766686  0.30178139  1
  S  S28  1  0.33660036  0.73164812  0.57654497  1
  S  S29  1  0.83660034  0.26835183  0.42345528  1
  S  S30  1  0.58276989  0.44810839  0.54748224  1
  S  S31  1  0.08276989  0.55189171  0.45251763  1
  S  S32  1  0.40176762  0.63760666  0.94344894  1
  S  S33  1  0.90176778  0.36239334  0.05655139  1
  S  S34  1  0.74823357  0.13906763  0.79925219  1
  S  S35  1  0.24823367  0.86093283  0.20074804  1
  S  S36  1  0.52624874  0.77071541  0.26448784  1
  S  S37  1  0.02624865  0.22928474  0.73551217  1
  S  S38  1  0.72397174  0.03998621  0.18992541  1
  S  S39  1  0.22397165  0.96001384  0.81007465  1
  S  S40  1  0.47821535  0.11490117  0.38352560  1
  S  S41  1  0.97821533  0.88509896  0.61647420  1
  S  S42  1  0.11309225  0.58188325  0.84175878  1
  S  S43  1  0.46719585  0.07819822  0.97271474  1
