# generated using pymatgen
data_Li3PS4
_symmetry_space_group_name_H-M   'P 1'
_cell_length_a   6.20514773
_cell_length_b   6.62261394
_cell_length_c   7.78000496
_cell_angle_alpha   89.99999750
_cell_angle_beta   90.00001448
_cell_angle_gamma   90.00000912
_symmetry_Int_Tables_number   1
_chemical_formula_structural   Li3PS4
_chemical_formula_sum   'Li6 P2 S8'
_cell_volume   319.71384115
_cell_formula_units_Z   2
loop_
 _symmetry_equiv_pos_site_id
 _symmetry_equiv_pos_as_xyz
  1  'x, y, z'
loop_
 _atom_site_type_symbol
 _atom_site_label
 _atom_site_symmetry_multiplicity
 _atom_site_fract_x
 _atom_site_fract_y
 _atom_site_fract_z
 _atom_site_occupancy
  Li  Li0  1  0.90677888  0.81394950  0.74198519  1
  Li  Li1  1  0.40677890  0.18605048  0.75801497  1
  Li  Li2  1  0.40677897  0.18605055  0.24198520  1
  Li  Li3  1  0.90677894  0.81394953  0.25801508  1
  Li  Li4  1  0.39636529  0.64675019  0.50000000  1
  Li  Li5  1  0.89636512  0.35324987  -0.00000023  1
  P  P6  1  0.40805532  0.68336717  -0.00000007  1
  P  P7  1  0.90805532  0.31663274  0.50000001  1
  S  S8  1  0.29913026  0.82883958  0.21772651  1
  S  S9  1  0.79913050  0.17116058  0.28227355  1
  S  S10  1  0.79608353  0.60961709  0.50000009  1
  S  S11  1  0.29608351  0.39038259  0.00000000  1
  S  S12  1  0.79913045  0.17116056  0.71772645  1
  S  S13  1  0.29913015  0.82883934  0.78227320  1
  S  S14  1  0.74057846  0.69003971  -0.00000000  1
  S  S15  1  0.24057843  0.30996053  0.50000006  1
