# generated using pymatgen
data_LiAlCl4
_symmetry_space_group_name_H-M   'P 1'
_cell_length_a   7.24695375
_cell_length_b   9.47775844
_cell_length_c   8.57740299
_cell_angle_alpha   90.00356346
_cell_angle_beta   90.00003394
_cell_angle_gamma   90.00000054
_symmetry_Int_Tables_number   1
_chemical_formula_structural   LiAlCl4
_chemical_formula_sum   'Li4 Al4 Cl16'
_cell_volume   589.13786936
_cell_formula_units_Z   4
loop_
 _symmetry_equiv_pos_site_id
 _symmetry_equiv_pos_as_xyz
  1  'x, y, z'
loop_
 _atom_site_type_symbol
 _atom_site_label
 _atom_site_symmetry_multiplicity
 _atom_site_fract_x
 _atom_site_fract_y
 _atom_site_fract_z
 _atom_site_occupancy
  Li  Li0  1  0.75000011  0.25013154  0.72412797  1
  Li  Li1  1  0.25000001  0.75013151  0.77587221  1
  Li  Li2  1  0.24999986  0.74986848  0.27587159  1
  Li  Li3  1  0.75000003  0.24986848  0.22412738  1
  Al  Al4  1  0.25000000  0.36102944  0.49964196  1
  Al  Al5  1  0.25000000  0.13897069  0.99959635  1
  Al  Al6  1  0.75000000  0.63897056  0.50035813  1
  Al  Al7  1  0.75000001  0.86102931  0.00040374  1
  Cl  Cl8  1  0.49706241  0.22900503  0.49810665  1
  Cl  Cl9  1  0.24999997  0.48623482  0.28973339  1
  Cl  Cl10  1  0.50293762  0.72900526  0.00189785  1
  Cl  Cl11  1  0.99706241  0.72900528  0.00189809  1
  Cl  Cl12  1  0.49706236  0.27099475  0.99810223  1
  Cl  Cl13  1  0.75000003  0.51376517  0.71026669  1
  Cl  Cl14  1  0.24999996  0.01378301  0.78975806  1
  Cl  Cl15  1  0.74999997  0.98547603  0.79063144  1
  Cl  Cl16  1  0.99706247  0.77099494  0.50189364  1
  Cl  Cl17  1  0.50293756  0.77099495  0.50189343  1
  Cl  Cl18  1  0.75000003  0.98621700  0.21024203  1
  Cl  Cl19  1  0.25000003  0.01452397  0.20936866  1
  Cl  Cl20  1  0.00293755  0.22900505  0.49810644  1
  Cl  Cl21  1  0.25000003  0.48545774  0.70934317  1
  Cl  Cl22  1  0.74999996  0.51454225  0.29065692  1
  Cl  Cl23  1  0.00293761  0.27099474  0.99810200  1
