# generated using pymatgen
data_LiAlI4
_symmetry_space_group_name_H-M   'P 1'
_cell_length_a   9.19748715
_cell_length_b   6.95361397
_cell_length_c   19.40584210
_cell_angle_alpha   89.01301583
_cell_angle_beta   89.99998451
_cell_angle_gamma   90.00003863
_symmetry_Int_Tables_number   1
_chemical_formula_structural   LiAlI4
_chemical_formula_sum   'Li4 Al4 I16'
_cell_volume   1240.93153359
_cell_formula_units_Z   4
loop_
 _symmetry_equiv_pos_site_id
 _symmetry_equiv_pos_as_xyz
  1  'x, y, z'
loop_
 _atom_site_type_symbol
 _atom_site_label
 _atom_site_symmetry_multiplicity
 _atom_site_fract_x
 _atom_site_fract_y
 _atom_site_fract_z
 _atom_site_occupancy
  Li  Li0  1  0.38533573  0.74155002  0.87527437  1
  Li  Li1  1  1.11466445  0.74155034  0.37527426  1
  Li  Li2  1  0.61466437  0.25844998  0.12472560  1
  Li  Li3  1  -0.11466448  0.25844962  0.62472570  1
  Al  Al4  1  0.13212080  0.24229526  0.36755154  1
  Al  Al5  1  0.63212105  0.75770509  0.13244867  1
  Al  Al6  1  0.36787900  0.24229494  0.86755134  1
  Al  Al7  1  0.86787912  0.75770472  0.63244847  1
  I  I8  1  0.21835225  0.45512523  0.46690478  1
  I  I9  1  0.57032942  0.52262917  0.23166076  1
  I  I10  1  0.07032934  0.47737082  0.26833936  1
  I  I11  1  0.66563818  0.99706218  0.66166466  1
  I  I12  1  0.33436180  0.00293781  0.33833542  1
  I  I13  1  0.90809380  0.03477860  0.39723276  1
  I  I14  1  0.71835251  0.54487561  0.03309531  1
  I  I15  1  0.16563809  0.00293692  0.83833540  1
  I  I16  1  0.78164755  0.54487482  0.53309524  1
  I  I17  1  0.83436192  0.99706311  0.16166467  1
  I  I18  1  0.92967068  0.52262910  0.73166062  1
  I  I19  1  0.28164766  0.45512449  0.96690470  1
  I  I20  1  0.09190611  0.96522136  0.60276720  1
  I  I21  1  0.59190604  0.03477883  0.89723263  1
  I  I22  1  0.40809403  0.96522118  0.10276734  1
  I  I23  1  0.42967056  0.47737079  0.76833921  1
