# generated using pymatgen
data_LiAs3H2O9
_symmetry_space_group_name_H-M   'P 1'
_cell_length_a   7.29919932
_cell_length_b   7.70566009
_cell_length_c   7.71412989
_cell_angle_alpha   111.54335359
_cell_angle_beta   104.86423793
_cell_angle_gamma   107.69982452
_symmetry_Int_Tables_number   1
_chemical_formula_structural   LiAs3H2O9
_chemical_formula_sum   'Li2 As6 H4 O18'
_cell_volume   349.71027516
_cell_formula_units_Z   2
loop_
 _symmetry_equiv_pos_site_id
 _symmetry_equiv_pos_as_xyz
  1  'x, y, z'
loop_
 _atom_site_type_symbol
 _atom_site_label
 _atom_site_symmetry_multiplicity
 _atom_site_fract_x
 _atom_site_fract_y
 _atom_site_fract_z
 _atom_site_occupancy
  Li  Li0  1  0.35608124  0.86508803  0.06704015  1
  Li  Li1  1  0.64391879  0.13491199  0.93295990  1
  As  As2  1  0.36789950  0.32691478  0.16056809  1
  As  As3  1  0.19938007  0.83309801  0.44018597  1
  As  As4  1  0.15213495  0.43322591  0.48014389  1
  As  As5  1  0.84786505  0.56677410  0.51985611  1
  As  As6  1  0.80061993  0.16690202  0.55981403  1
  As  As7  1  0.63210050  0.67308519  0.83943190  1
  H  H8  1  0.88981344  0.66053572  0.07083863  1
  H  H9  1  0.62447425  0.80376512  0.37386566  1
  H  H10  1  0.37552574  0.19623491  0.62613434  1
  H  H11  1  0.11018656  0.33946427  0.92916135  1
  O  O12  1  0.27145778  0.42824852  0.01129681  1
  O  O13  1  0.40647991  0.12089861  0.04368774  1
  O  O14  1  0.13490845  0.80019291  0.20176462  1
  O  O15  1  0.18419782  0.26058412  0.26189605  1
  O  O16  1  0.90879888  0.41669865  0.30972111  1
  O  O17  1  0.60489970  0.55014496  0.34369415  1
  O  O18  1  0.59796554  0.92074289  0.36585274  1
  O  O19  1  0.00810245  0.18674533  0.48143486  1
  O  O20  1  0.68018061  0.32027153  0.51218677  1
  O  O21  1  0.31981937  0.67972846  0.48781324  1
  O  O22  1  0.99189753  0.81325466  0.51856513  1
  O  O23  1  0.40203446  0.07925708  0.63414727  1
  O  O24  1  0.39510031  0.44985504  0.65630585  1
  O  O25  1  0.09120112  0.58330135  0.69027887  1
  O  O26  1  0.81580218  0.73941589  0.73810395  1
  O  O27  1  0.86509154  0.19980709  0.79823538  1
  O  O28  1  0.59352010  0.87910141  0.95631228  1
  O  O29  1  0.72854222  0.57175146  0.98870317  1
