# generated using pymatgen
data_LiBF4
_symmetry_space_group_name_H-M   'P 1'
_cell_length_a   5.78575072
_cell_length_b   6.16641184
_cell_length_c   7.96793282
_cell_angle_alpha   89.99999789
_cell_angle_beta   90.00001081
_cell_angle_gamma   89.99995435
_symmetry_Int_Tables_number   1
_chemical_formula_structural   LiBF4
_chemical_formula_sum   'Li4 B4 F16'
_cell_volume   284.27450285
_cell_formula_units_Z   4
loop_
 _symmetry_equiv_pos_site_id
 _symmetry_equiv_pos_as_xyz
  1  'x, y, z'
loop_
 _atom_site_type_symbol
 _atom_site_label
 _atom_site_symmetry_multiplicity
 _atom_site_fract_x
 _atom_site_fract_y
 _atom_site_fract_z
 _atom_site_occupancy
  Li  Li0  1  0.25000031  0.23398176  0.15503219  1
  Li  Li1  1  0.74999979  0.76601823  0.84496773  1
  Li  Li2  1  0.74999990  0.73398156  0.34496772  1
  Li  Li3  1  0.25000007  0.26601860  0.65503237  1
  B  B4  1  0.75000010  0.15674767  0.55382552  1
  B  B5  1  0.25000025  0.84325240  0.44617459  1
  B  B6  1  0.24999973  0.65674747  -0.05382570  1
  B  B7  1  0.74999980  0.34325240  0.05382570  1
  F  F8  1  0.75000002  0.49772657  0.18645953  1
  F  F9  1  0.25000010  0.50227350  0.81354061  1
  F  F10  1  0.25000025  0.99772594  0.31354079  1
  F  F11  1  0.74999988  0.00227376  0.68645932  1
  F  F12  1  0.74999989  0.45292714  0.89785347  1
  F  F13  1  0.24999998  0.54707288  0.10214662  1
  F  F14  1  0.24999982  0.95292723  0.60214634  1
  F  F15  1  0.75000011  0.04707249  0.39785315  1
  F  F16  1  0.55183358  0.20937184  0.06496681  1
  F  F17  1  0.05183339  0.79062836  -0.06496673  1
  F  F18  1  0.44816667  0.70937167  0.43503338  1
  F  F19  1  0.94816650  0.29062855  0.56496661  1
  F  F20  1  0.44816655  0.79062833  -0.06496677  1
  F  F21  1  0.94816671  0.20937144  0.06496679  1
  F  F22  1  0.55183293  0.29062862  0.56496664  1
  F  F23  1  0.05183369  0.70937156  0.43503333  1
