# generated using pymatgen
data_LiHg2AsO4
_symmetry_space_group_name_H-M   'P 1'
_cell_length_a   6.30908747
_cell_length_b   9.50413138
_cell_length_c   9.51864746
_cell_angle_alpha   89.99917557
_cell_angle_beta   89.99997335
_cell_angle_gamma   89.99854818
_symmetry_Int_Tables_number   1
_chemical_formula_structural   LiHg2AsO4
_chemical_formula_sum   'Li4 Hg8 As4 O16'
_cell_volume   570.76091019
_cell_formula_units_Z   4
loop_
 _symmetry_equiv_pos_site_id
 _symmetry_equiv_pos_as_xyz
  1  'x, y, z'
loop_
 _atom_site_type_symbol
 _atom_site_label
 _atom_site_symmetry_multiplicity
 _atom_site_fract_x
 _atom_site_fract_y
 _atom_site_fract_z
 _atom_site_occupancy
  Li  Li0  1  0.50000087  0.02372943  0.77156733  1
  Li  Li1  1  0.49999878  0.47627067  0.27156554  1
  Li  Li2  1  0.50000108  0.52372829  0.72843468  1
  Li  Li3  1  0.49999886  0.97627004  0.22843284  1
  Hg  Hg4  1  0.29271996  0.75191142  0.47543385  1
  Hg  Hg5  1  0.70728017  0.24808884  0.52456610  1
  Hg  Hg6  1  0.29271848  0.25191154  0.02456531  1
  Hg  Hg7  1  0.29271946  0.24809221  0.52456645  1
  Hg  Hg8  1  0.70728067  0.25190723  0.02456585  1
  Hg  Hg9  1  0.70728184  0.74808911  0.97543453  1
  Hg  Hg10  1  0.29271935  0.74809245  0.97543444  1
  Hg  Hg11  1  0.70728088  0.75190794  0.47543368  1
  As  As12  1  -0.00001069  0.95915636  0.72927420  1
  As  As13  1  -0.00001652  0.45915684  0.77073293  1
  As  As14  1  0.00001581  0.04084378  0.27072583  1
  As  As15  1  0.00002284  0.54084331  0.22926701  1
  O  O16  1  -0.00000073  0.65767193  0.08798379  1
  O  O17  1  0.22854963  0.44497912  0.22245960  1
  O  O18  1  0.00000137  0.86543593  0.88674481  1
  O  O19  1  0.00000141  0.36543282  0.61324896  1
  O  O20  1  0.00000037  0.34232827  0.91201612  1
  O  O21  1  0.22856950  0.55502678  0.77754040  1
  O  O22  1  -0.00000166  0.13456421  0.11325513  1
  O  O23  1  0.22855511  0.94497872  0.27754435  1
  O  O24  1  -0.00000165  0.63456743  0.38675127  1
  O  O25  1  0.22856880  0.05502600  0.72245554  1
  O  O26  1  0.77144249  0.05502210  0.72245564  1
  O  O27  1  -0.00000074  0.15767408  0.41202115  1
  O  O28  1  0.77142736  0.44497200  0.22245975  1
  O  O29  1  0.00000068  0.84232611  0.58797900  1
  O  O30  1  0.77144759  0.55502182  0.77754030  1
  O  O31  1  0.77142863  0.94497323  0.27754462  1
