# generated using pymatgen
data_LiIO3
_symmetry_space_group_name_H-M   'P 1'
_cell_length_a   6.13238134
_cell_length_b   7.04002510
_cell_length_c   13.63122229
_cell_angle_alpha   90.00000232
_cell_angle_beta   90.00000047
_cell_angle_gamma   89.99999614
_symmetry_Int_Tables_number   1
_chemical_formula_structural   LiIO3
_chemical_formula_sum   'Li8 I8 O24'
_cell_volume   588.48874477
_cell_formula_units_Z   8
loop_
 _symmetry_equiv_pos_site_id
 _symmetry_equiv_pos_as_xyz
  1  'x, y, z'
loop_
 _atom_site_type_symbol
 _atom_site_label
 _atom_site_symmetry_multiplicity
 _atom_site_fract_x
 _atom_site_fract_y
 _atom_site_fract_z
 _atom_site_occupancy
  Li  Li0  1  0.07008138  0.61663219  0.68978841  1
  Li  Li1  1  0.57008157  0.38336784  0.31021163  1
  Li  Li2  1  0.07008146  0.38336785  0.18978846  1
  Li  Li3  1  0.57008148  0.61663214  0.81021159  1
  Li  Li4  1  0.06403677  0.11467791  0.68936074  1
  Li  Li5  1  0.56403689  0.88532208  0.31063914  1
  Li  Li6  1  0.06403700  0.88532207  0.18936085  1
  Li  Li7  1  0.56403678  0.11467790  0.81063901  1
  I  I8  1  0.62855693  0.86529928  0.60421133  1
  I  I9  1  0.12855693  0.13470079  0.39578873  1
  I  I10  1  0.62855698  0.13470069  0.10421133  1
  I  I11  1  0.12855675  0.86529931  0.89578860  1
  I  I12  1  0.50483881  0.36565066  0.60518715  1
  I  I13  1  0.00483891  0.63434933  0.39481287  1
  I  I14  1  0.50483892  0.63434928  0.10518719  1
  I  I15  1  0.00483882  0.36565067  0.89481279  1
  O  O16  1  0.05982118  0.36421361  0.76301196  1
  O  O17  1  0.55982123  0.63578646  0.23698807  1
  O  O18  1  0.05982119  0.63578642  0.26301197  1
  O  O19  1  0.55982120  0.36421353  0.73698799  1
  O  O20  1  0.07021139  0.86547681  0.76427276  1
  O  O21  1  0.57021151  0.13452329  0.23572724  1
  O  O22  1  0.07021162  0.13452324  0.26427282  1
  O  O23  1  0.57021147  0.86547664  0.73572717  1
  O  O24  1  0.31138848  0.07266076  0.89923289  1
  O  O25  1  0.81138856  0.92733912  0.10076721  1
  O  O26  1  0.31138850  0.92733922  0.39923299  1
  O  O27  1  0.81138850  0.07266086  0.60076709  1
  O  O28  1  0.81398964  0.16269766  0.89923226  1
  O  O29  1  0.31398971  0.83730230  0.10076775  1
  O  O30  1  0.81398967  0.83730233  0.39923235  1
  O  O31  1  0.31398956  0.16269768  0.60076767  1
  O  O32  1  0.32220474  0.57304421  0.60124590  1
  O  O33  1  0.82220479  0.42695585  0.39875418  1
  O  O34  1  0.32220482  0.42695578  0.10124592  1
  O  O35  1  0.82220472  0.57304418  0.89875414  1
  O  O36  1  0.81847138  0.66148911  0.60193224  1
  O  O37  1  0.31847137  0.33851090  0.39806770  1
  O  O38  1  0.81847130  0.33851090  0.10193230  1
  O  O39  1  0.31847114  0.66148913  0.89806758  1
