# generated using pymatgen
data_LiPO3
_symmetry_space_group_name_H-M   'P 1'
_cell_length_a   5.32313198
_cell_length_b   7.14567491
_cell_length_c   15.15478125
_cell_angle_alpha   55.47107411
_cell_angle_beta   89.99929256
_cell_angle_gamma   89.99947019
_symmetry_Int_Tables_number   1
_chemical_formula_structural   LiPO3
_chemical_formula_sum   'Li8 P8 O24'
_cell_volume   474.90102255
_cell_formula_units_Z   8
loop_
 _symmetry_equiv_pos_site_id
 _symmetry_equiv_pos_as_xyz
  1  'x, y, z'
loop_
 _atom_site_type_symbol
 _atom_site_label
 _atom_site_symmetry_multiplicity
 _atom_site_fract_x
 _atom_site_fract_y
 _atom_site_fract_z
 _atom_site_occupancy
  Li  Li0  1  0.38569604  0.21519922  0.47152083  1
  Li  Li1  1  0.88569918  0.78480372  0.02847995  1
  Li  Li2  1  0.61430396  0.78480078  0.52847918  1
  Li  Li3  1  0.11430082  0.21519629  0.97152005  1
  Li  Li4  1  0.85221531  0.53061800  0.40698447  1
  Li  Li5  1  0.35221181  0.46938296  0.09301634  1
  Li  Li6  1  0.14778469  0.46938200  0.59301553  1
  Li  Li7  1  0.64778819  0.53061704  0.90698366  1
  P  P8  1  0.11900850  0.93764897  0.39037271  1
  P  P9  1  0.61902221  0.06234818  0.10962461  1
  P  P10  1  0.88099149  0.06235102  0.60962729  1
  P  P11  1  0.38097779  0.93765182  0.89037539  1
  P  P12  1  0.31792824  0.70282880  0.29618990  1
  P  P13  1  0.81793250  0.29717997  0.20380950  1
  P  P14  1  0.68207176  0.29717120  0.70381010  1
  P  P15  1  0.18206751  0.70282003  0.79619050  1
  O  O16  1  0.94411675  0.73584286  0.45464232  1
  O  O17  1  0.44411552  0.26415880  0.04535982  1
  O  O18  1  0.05588325  0.26415714  0.54535768  1
  O  O19  1  0.55588449  0.73584119  0.95464018  1
  O  O20  1  0.30347352  0.97404084  0.45392180  1
  O  O21  1  0.80346413  0.02596395  0.04608081  1
  O  O22  1  0.69652648  0.02595916  0.54607820  1
  O  O23  1  0.19653588  0.97403606  0.95391919  1
  O  O24  1  0.95705084  0.16480630  0.31849295  1
  O  O25  1  0.45705916  0.83519251  0.18150967  1
  O  O26  1  0.04294916  0.83519370  0.68150705  1
  O  O27  1  0.54294084  0.16480749  0.81849033  1
  O  O28  1  0.49879183  0.53909907  0.38282686  1
  O  O29  1  0.99878507  0.46090297  0.11717836  1
  O  O30  1  0.50120816  0.46090094  0.61717314  1
  O  O31  1  0.00121493  0.53909702  0.88282164  1
  O  O32  1  0.42838327  0.61191523  0.79040554  1
  O  O33  1  0.92837751  0.38808613  0.70959509  1
  O  O34  1  0.57161672  0.38808477  0.20959446  1
  O  O35  1  0.07162248  0.61191387  0.29040491  1
  O  O36  1  0.22749427  0.92013790  0.80380564  1
  O  O37  1  0.72750482  0.07985605  0.69619627  1
  O  O38  1  0.77250573  0.07986210  0.19619436  1
  O  O39  1  0.27249517  0.92014395  0.30380373  1
