# generated using pymatgen
data_LiSbO3
_symmetry_space_group_name_H-M   'P 1'
_cell_length_a   7.24636697
_cell_length_b   7.24636709
_cell_length_c   7.24636721
_cell_angle_alpha   59.99983028
_cell_angle_beta   59.99982562
_cell_angle_gamma   59.99983562
_symmetry_Int_Tables_number   1
_chemical_formula_structural   LiSbO3
_chemical_formula_sum   'Li4 Sb4 O12'
_cell_volume   269.05701867
_cell_formula_units_Z   4
loop_
 _symmetry_equiv_pos_site_id
 _symmetry_equiv_pos_as_xyz
  1  'x, y, z'
loop_
 _atom_site_type_symbol
 _atom_site_label
 _atom_site_symmetry_multiplicity
 _atom_site_fract_x
 _atom_site_fract_y
 _atom_site_fract_z
 _atom_site_occupancy
  Li  Li0  1  0.62500002  0.12499997  0.12500003  1
  Li  Li1  1  0.12500000  0.62500000  0.12499997  1
  Li  Li2  1  0.12500004  0.12499998  0.62499999  1
  Li  Li3  1  0.12499998  0.12500002  0.12500000  1
  Sb  Sb4  1  0.12499997  0.62499996  0.62500010  1
  Sb  Sb5  1  0.62500003  0.12499998  0.62500000  1
  Sb  Sb6  1  0.62500001  0.62499998  0.12500002  1
  Sb  Sb7  1  0.62500000  0.62499997  0.62499996  1
  O  O8  1  0.70719296  0.70719305  0.29280657  1
  O  O9  1  0.29280713  0.29280708  0.70719319  1
  O  O10  1  0.70719297  0.29280664  0.70719285  1
  O  O11  1  0.29280724  0.70719324  0.29280711  1
  O  O12  1  0.29280658  0.70719297  0.70719292  1
  O  O13  1  0.70719322  0.29280705  0.29280727  1
  O  O14  1  0.54280711  0.54280706  0.95719336  1
  O  O15  1  0.95719277  0.95719296  0.54280681  1
  O  O16  1  0.54280702  0.95719337  0.54280719  1
  O  O17  1  0.95719283  0.54280676  0.95719285  1
  O  O18  1  0.95719341  0.54280702  0.54280704  1
  O  O19  1  0.54280671  0.95719295  0.95719279  1
