# generated using pymatgen
data_MgAlAg2F7
_symmetry_space_group_name_H-M   'P 1'
_cell_length_a   7.35491019
_cell_length_b   7.35494102
_cell_length_c   7.35490693
_cell_angle_alpha   120.35130019
_cell_angle_beta   116.66182889
_cell_angle_gamma   92.63543716
_symmetry_Int_Tables_number   1
_chemical_formula_structural   MgAlAg2F7
_chemical_formula_sum   'Mg2 Al2 Ag4 F14'
_cell_volume   287.00052864
_cell_formula_units_Z   2
loop_
 _symmetry_equiv_pos_site_id
 _symmetry_equiv_pos_as_xyz
  1  'x, y, z'
loop_
 _atom_site_type_symbol
 _atom_site_label
 _atom_site_symmetry_multiplicity
 _atom_site_fract_x
 _atom_site_fract_y
 _atom_site_fract_z
 _atom_site_occupancy
  Mg  Mg0  1  -0.00000003  0.00000001  0.49999999  1
  Mg  Mg1  1  -0.00000003  0.50000000  -0.00000003  1
  Al  Al2  1  0.50000014  0.00000004  0.50000001  1
  Al  Al3  1  -0.00000002  0.49999995  0.50000008  1
  Ag  Ag4  1  -0.00000001  -0.00000000  0.00000001  1
  Ag  Ag5  1  0.50000001  0.50000001  0.00000002  1
  Ag  Ag6  1  0.50000001  0.00000000  0.00000001  1
  Ag  Ag7  1  0.50000000  0.49999999  0.49999999  1
  F  F8  1  0.37957120  0.08903284  0.29053625  1
  F  F9  1  0.70150217  0.41096512  0.29053652  1
  F  F10  1  0.68690918  0.28972995  0.75495409  1
  F  F11  1  0.96522350  0.21027007  0.39718020  1
  F  F12  1  0.96522421  0.56804335  0.75495466  1
  F  F13  1  0.68691244  0.93195815  0.39718271  1
  F  F14  1  0.31308745  0.06804186  0.60281732  1
  F  F15  1  0.03477582  0.43195665  0.24504525  1
  F  F16  1  0.03477656  0.78973000  0.60281983  1
  F  F17  1  0.31309075  0.71026999  0.24504586  1
  F  F18  1  0.89735229  0.74999863  0.14735247  1
  F  F19  1  0.62042879  0.91096716  0.70946374  1
  F  F20  1  0.29849787  0.58903489  0.70946349  1
  F  F21  1  0.10264772  0.25000136  0.85264754  1
