# generated using pymatgen
data_MgAlGeSe4
_symmetry_space_group_name_H-M   'P 1'
_cell_length_a   5.92615528
_cell_length_b   5.92617126
_cell_length_c   6.92177098
_cell_angle_alpha   64.65238029
_cell_angle_beta   64.65237791
_cell_angle_gamma   90.00030749
_symmetry_Int_Tables_number   1
_chemical_formula_structural   MgAlGeSe4
_chemical_formula_sum   'Mg1 Al1 Ge1 Se4'
_cell_volume   193.47207012
_cell_formula_units_Z   1
loop_
 _symmetry_equiv_pos_site_id
 _symmetry_equiv_pos_as_xyz
  1  'x, y, z'
loop_
 _atom_site_type_symbol
 _atom_site_label
 _atom_site_symmetry_multiplicity
 _atom_site_fract_x
 _atom_site_fract_y
 _atom_site_fract_z
 _atom_site_occupancy
  Mg  Mg0  1  0.00000494  0.00000291  -0.00000278  1
  Al  Al1  1  0.25000338  0.75000228  0.50000045  1
  Ge  Ge2  1  0.50000090  0.50000260  0.00000204  1
  Se  Se3  1  0.38931479  0.88605289  0.72265029  1
  Se  Se4  1  0.88802396  0.39128685  0.72265836  1
  Se  Se5  1  0.11394525  0.11196782  0.27734308  1
  Se  Se6  1  0.60870678  0.61068464  0.27734856  1
