# generated using pymatgen
data_MgAsF7
_symmetry_space_group_name_H-M   'P 1'
_cell_length_a   4.42737124
_cell_length_b   6.82375021
_cell_length_c   7.83735185
_cell_angle_alpha   100.56066156
_cell_angle_beta   93.04689827
_cell_angle_gamma   109.25772099
_symmetry_Int_Tables_number   1
_chemical_formula_structural   MgAsF7
_chemical_formula_sum   'Mg2 As2 F14'
_cell_volume   218.08875158
_cell_formula_units_Z   2
loop_
 _symmetry_equiv_pos_site_id
 _symmetry_equiv_pos_as_xyz
  1  'x, y, z'
loop_
 _atom_site_type_symbol
 _atom_site_label
 _atom_site_symmetry_multiplicity
 _atom_site_fract_x
 _atom_site_fract_y
 _atom_site_fract_z
 _atom_site_occupancy
  Mg  Mg0  1  0.14730706  0.35468606  0.88617300  1
  Mg  Mg1  1  0.85269246  0.64531402  0.11382704  1
  As  As2  1  0.64629361  0.80405655  0.71079288  1
  As  As3  1  0.35370617  0.19594344  0.28920682  1
  F  F4  1  0.15909239  0.19453481  0.07882512  1
  F  F5  1  0.46597648  0.79919881  0.50805577  1
  F  F6  1  0.53402379  0.20080082  0.49194432  1
  F  F7  1  0.42719486  -0.05994419  0.82458537  1
  F  F8  1  0.57280518  0.05994424  0.17541441  1
  F  F9  1  0.34704153  0.55014707  0.72412198  1
  F  F10  1  0.84090785  0.80546551  0.92117503  1
  F  F11  1  0.28845432  0.60849877  0.08060805  1
  F  F12  1  0.04467515  -0.06403059  0.28334875  1
  F  F13  1  0.11665878  0.32848896  0.38758727  1
  F  F14  1  0.71154546  0.39150133  0.91939201  1
  F  F15  1  0.88334139  0.67151087  0.61241291  1
  F  F16  1  0.65295860  0.44985294  0.27587812  1
  F  F17  1  0.95532491  0.06403058  0.71665116  1
