# generated using pymatgen
data_MgSO4
_symmetry_space_group_name_H-M   'P 1'
_cell_length_a   4.89715866
_cell_length_b   4.90451383
_cell_length_c   7.49549512
_cell_angle_alpha   86.74535890
_cell_angle_beta   68.97586975
_cell_angle_gamma   68.85668876
_symmetry_Int_Tables_number   1
_chemical_formula_structural   MgSO4
_chemical_formula_sum   'Mg2 S2 O8'
_cell_volume   156.18468441
_cell_formula_units_Z   2
loop_
 _symmetry_equiv_pos_site_id
 _symmetry_equiv_pos_as_xyz
  1  'x, y, z'
loop_
 _atom_site_type_symbol
 _atom_site_label
 _atom_site_symmetry_multiplicity
 _atom_site_fract_x
 _atom_site_fract_y
 _atom_site_fract_z
 _atom_site_occupancy
  Mg  Mg0  1  0.00000396  -0.00000239  -0.00000141  1
  Mg  Mg1  1  0.49999898  0.50000064  0.49999982  1
  S  S2  1  0.80962409  0.59834273  0.78213870  1
  S  S3  1  0.19036162  0.40166231  0.21786298  1
  O  O4  1  0.76243234  0.75529289  0.95846947  1
  O  O5  1  -0.09023776  0.27784307  0.79735486  1
  O  O6  1  0.50560179  0.70008296  0.74319161  1
  O  O7  1  0.04660857  0.66947750  0.61724977  1
  O  O8  1  0.95339531  0.33052344  0.38274790  1
  O  O9  1  0.49440179  0.29991585  0.25681063  1
  O  O10  1  0.09024065  0.72215321  0.20264450  1
  O  O11  1  0.23756865  0.24470778  0.04153116  1
