# generated using pymatgen
data_Mn2Cr3CuS8
_symmetry_space_group_name_H-M   'P 1'
_cell_length_a   7.05253644
_cell_length_b   7.05253572
_cell_length_c   7.05253791
_cell_angle_alpha   60.06302819
_cell_angle_beta   60.06303326
_cell_angle_gamma   60.06303500
_symmetry_Int_Tables_number   1
_chemical_formula_structural   Mn2Cr3CuS8
_chemical_formula_sum   'Mn2 Cr3 Cu1 S8'
_cell_volume   248.39395575
_cell_formula_units_Z   1
loop_
 _symmetry_equiv_pos_site_id
 _symmetry_equiv_pos_as_xyz
  1  'x, y, z'
loop_
 _atom_site_type_symbol
 _atom_site_label
 _atom_site_symmetry_multiplicity
 _atom_site_fract_x
 _atom_site_fract_y
 _atom_site_fract_z
 _atom_site_occupancy
  Mn  Mn0  1  0.00352083  0.00352081  0.00352087  1
  Mn  Mn1  1  0.62556245  0.62556234  0.62556280  1
  Cr  Cr2  1  0.49429916  0.00196109  0.00196112  1
  Cr  Cr3  1  0.00196112  0.00196110  0.49429923  1
  Cr  Cr4  1  0.00196112  0.49429929  0.00196105  1
  Cu  Cu5  1  0.37401075  0.37401087  0.37401063  1
  S  S6  1  0.21765241  0.76168808  0.76168815  1
  S  S7  1  0.76168795  0.76168782  0.21765250  1
  S  S8  1  0.76168824  0.21765227  0.76168823  1
  S  S9  1  0.76061097  0.76061112  0.76061123  1
  S  S10  1  0.77569787  0.24022840  0.24022822  1
  S  S11  1  0.24022854  0.24022859  0.77569776  1
  S  S12  1  0.24022824  0.77569801  0.24022823  1
  S  S13  1  0.24089035  0.24089018  0.24088996  1
