# generated using pymatgen
data_Mn2HgSe4
_symmetry_space_group_name_H-M   'P 1'
_cell_length_a   5.76893509
_cell_length_b   5.76893843
_cell_length_c   6.88900199
_cell_angle_alpha   114.75386773
_cell_angle_beta   114.75405139
_cell_angle_gamma   90.00252383
_symmetry_Int_Tables_number   1
_chemical_formula_structural   Mn2HgSe4
_chemical_formula_sum   'Mn2 Hg1 Se4'
_cell_volume   184.74800733
_cell_formula_units_Z   1
loop_
 _symmetry_equiv_pos_site_id
 _symmetry_equiv_pos_as_xyz
  1  'x, y, z'
loop_
 _atom_site_type_symbol
 _atom_site_label
 _atom_site_symmetry_multiplicity
 _atom_site_fract_x
 _atom_site_fract_y
 _atom_site_fract_z
 _atom_site_occupancy
  Mn  Mn0  1  0.24998261  0.74998851  0.49998960  1
  Mn  Mn1  1  0.49998231  0.49998104  -0.00001533  1
  Hg  Hg2  1  -0.00001193  -0.00001311  -0.00000835  1
  Se  Se3  1  0.12369647  0.13755381  0.71892853  1
  Se  Se4  1  0.59525154  0.58139280  0.71893029  1
  Se  Se5  1  0.86248023  0.40478575  0.28109348  1
  Se  Se6  1  0.41861777  0.87631220  0.28108178  1
