# generated using pymatgen
data_Mn2PbSe4
_symmetry_space_group_name_H-M   'P 1'
_cell_length_a   6.29660205
_cell_length_b   6.29656567
_cell_length_c   10.86960470
_cell_angle_alpha   89.99999651
_cell_angle_beta   89.99998827
_cell_angle_gamma   117.96018713
_symmetry_Int_Tables_number   1
_chemical_formula_structural   Mn2PbSe4
_chemical_formula_sum   'Mn4 Pb2 Se8'
_cell_volume   380.64399543
_cell_formula_units_Z   2
loop_
 _symmetry_equiv_pos_site_id
 _symmetry_equiv_pos_as_xyz
  1  'x, y, z'
loop_
 _atom_site_type_symbol
 _atom_site_label
 _atom_site_symmetry_multiplicity
 _atom_site_fract_x
 _atom_site_fract_y
 _atom_site_fract_z
 _atom_site_occupancy
  Mn  Mn0  1  0.22797991  0.76756684  -0.00000008  1
  Mn  Mn1  1  0.23244094  0.77201747  0.50000013  1
  Mn  Mn2  1  0.76755807  0.22797926  0.49999992  1
  Mn  Mn3  1  0.77202125  0.23244204  0.00000009  1
  Pb  Pb4  1  0.50000004  0.50000016  0.25000058  1
  Pb  Pb5  1  0.50000009  0.50000002  0.74999938  1
  Se  Se6  1  -0.00000547  0.49999442  0.16625969  1
  Se  Se7  1  0.19501277  0.36539209  0.50000000  1
  Se  Se8  1  0.49999604  -0.00000269  0.33374083  1
  Se  Se9  1  0.36539125  0.19501045  0.00000003  1
  Se  Se10  1  0.63461859  0.80499639  -0.00000005  1
  Se  Se11  1  0.49999605  -0.00000253  0.66625913  1
  Se  Se12  1  0.80499588  0.63461169  0.50000002  1
  Se  Se13  1  -0.00000541  0.49999439  0.83374034  1
