# generated using pymatgen
data_Mn2ZnSe4
_symmetry_space_group_name_H-M   'P 1'
_cell_length_a   5.61312453
_cell_length_b   5.61312528
_cell_length_c   6.80142527
_cell_angle_alpha   114.37618615
_cell_angle_beta   114.37618703
_cell_angle_gamma   89.99898154
_symmetry_Int_Tables_number   1
_chemical_formula_structural   Mn2ZnSe4
_chemical_formula_sum   'Mn2 Zn1 Se4'
_cell_volume   174.00338973
_cell_formula_units_Z   1
loop_
 _symmetry_equiv_pos_site_id
 _symmetry_equiv_pos_as_xyz
  1  'x, y, z'
loop_
 _atom_site_type_symbol
 _atom_site_label
 _atom_site_symmetry_multiplicity
 _atom_site_fract_x
 _atom_site_fract_y
 _atom_site_fract_z
 _atom_site_occupancy
  Mn  Mn0  1  0.24999785  0.74999714  0.50000049  1
  Mn  Mn1  1  0.49999666  0.49999834  0.00000058  1
  Zn  Zn2  1  -0.00000178  -0.00000156  0.00000058  1
  Se  Se3  1  0.39231758  0.37777978  0.26283909  1
  Se  Se4  1  0.11493705  0.60768371  0.73715806  1
  Se  Se5  1  0.62222445  0.12947633  0.73716139  1
  Se  Se6  1  0.87052821  0.88506626  0.26283982  1
