# generated using pymatgen
data_MnAgSe2
_symmetry_space_group_name_H-M   'P 1'
_cell_length_a   5.99733465
_cell_length_b   5.99733469
_cell_length_c   7.01320639
_cell_angle_alpha   115.31444578
_cell_angle_beta   115.31445031
_cell_angle_gamma   90.00022245
_symmetry_Int_Tables_number   1
_chemical_formula_structural   MnAgSe2
_chemical_formula_sum   'Mn2 Ag2 Se4'
_cell_volume   200.90650456
_cell_formula_units_Z   2
loop_
 _symmetry_equiv_pos_site_id
 _symmetry_equiv_pos_as_xyz
  1  'x, y, z'
loop_
 _atom_site_type_symbol
 _atom_site_label
 _atom_site_symmetry_multiplicity
 _atom_site_fract_x
 _atom_site_fract_y
 _atom_site_fract_z
 _atom_site_occupancy
  Mn  Mn0  1  0.50000030  0.50000090  -0.00000066  1
  Mn  Mn1  1  0.75000088  0.25000029  0.49999948  1
  Ag  Ag2  1  0.25000012  0.75000032  0.49999973  1
  Ag  Ag3  1  0.00000033  0.00000012  -0.00000026  1
  Se  Se4  1  0.84549924  0.87500103  0.25000075  1
  Se  Se5  1  0.62499950  0.15449987  0.75000010  1
  Se  Se6  1  0.40450057  0.37499890  0.25000144  1
  Se  Se7  1  0.12499907  0.59549857  0.74999943  1
