# generated using pymatgen
data_MnAgS2
_symmetry_space_group_name_H-M   'P 1'
_cell_length_a   5.70805325
_cell_length_b   5.70805358
_cell_length_c   6.65444455
_cell_angle_alpha   115.39875403
_cell_angle_beta   115.39874709
_cell_angle_gamma   90.00060409
_symmetry_Int_Tables_number   1
_chemical_formula_structural   MnAgS2
_chemical_formula_sum   'Mn2 Ag2 S4'
_cell_volume   172.37201292
_cell_formula_units_Z   2
loop_
 _symmetry_equiv_pos_site_id
 _symmetry_equiv_pos_as_xyz
  1  'x, y, z'
loop_
 _atom_site_type_symbol
 _atom_site_label
 _atom_site_symmetry_multiplicity
 _atom_site_fract_x
 _atom_site_fract_y
 _atom_site_fract_z
 _atom_site_occupancy
  Mn  Mn0  1  0.49999820  0.49999579  0.00000017  1
  Mn  Mn1  1  0.74999579  0.24999823  0.50000014  1
  Ag  Ag2  1  0.24999932  0.74999904  0.50000010  1
  Ag  Ag3  1  -0.00000099  -0.00000067  0.00000010  1
  S  S4  1  0.83973577  0.87498910  0.24999200  1
  S  S5  1  0.62499743  0.16026816  0.75000773  1
  S  S6  1  0.41025981  0.37500621  0.24999095  1
  S  S7  1  0.12501467  0.58974414  0.75000879  1
