# generated using pymatgen
data_MnAgSBr
_symmetry_space_group_name_H-M   'P 1'
_cell_length_a   4.49931974
_cell_length_b   10.31748464
_cell_length_c   8.67735780
_cell_angle_alpha   89.99999419
_cell_angle_beta   89.99999566
_cell_angle_gamma   89.99999998
_symmetry_Int_Tables_number   1
_chemical_formula_structural   MnAgSBr
_chemical_formula_sum   'Mn4 Ag4 S4 Br4'
_cell_volume   402.81737352
_cell_formula_units_Z   4
loop_
 _symmetry_equiv_pos_site_id
 _symmetry_equiv_pos_as_xyz
  1  'x, y, z'
loop_
 _atom_site_type_symbol
 _atom_site_label
 _atom_site_symmetry_multiplicity
 _atom_site_fract_x
 _atom_site_fract_y
 _atom_site_fract_z
 _atom_site_occupancy
  Mn  Mn0  1  0.50000000  0.18363029  0.75000010  1
  Mn  Mn1  1  0.50000002  0.81636988  0.24999994  1
  Mn  Mn2  1  0.49999957  0.50000002  -0.00000002  1
  Mn  Mn3  1  0.49999977  0.50000000  0.49999963  1
  Ag  Ag4  1  0.00000004  0.21696699  0.41972295  1
  Ag  Ag5  1  0.00000001  0.78303285  0.58027712  1
  Ag  Ag6  1  -0.00000003  0.21696702  0.08027715  1
  Ag  Ag7  1  0.00000004  0.78303290  0.91972281  1
  S  S8  1  0.49999999  0.27082954  0.00086803  1
  S  S9  1  0.50000004  0.72917053  -0.00086764  1
  S  S10  1  0.50000003  0.72917055  0.50086766  1
  S  S11  1  0.50000004  0.27082949  0.49913203  1
  Br  Br12  1  -0.00000001  0.03190005  0.74999998  1
  Br  Br13  1  0.00000019  0.48967155  0.75000013  1
  Br  Br14  1  0.00000026  0.51032824  0.25000014  1
  Br  Br15  1  0.00000003  0.96810009  0.25000000  1
