# generated using pymatgen
data_MnBiSeCl4
_symmetry_space_group_name_H-M   'P 1'
_cell_length_a   10.49987264
_cell_length_b   10.49989190
_cell_length_c   10.49988642
_cell_angle_alpha   108.43456744
_cell_angle_beta   108.43470249
_cell_angle_gamma   111.56589411
_symmetry_Int_Tables_number   1
_chemical_formula_structural   MnBiSeCl4
_chemical_formula_sum   'Mn4 Bi4 Se4 Cl16'
_cell_volume   890.20309236
_cell_formula_units_Z   4
loop_
 _symmetry_equiv_pos_site_id
 _symmetry_equiv_pos_as_xyz
  1  'x, y, z'
loop_
 _atom_site_type_symbol
 _atom_site_label
 _atom_site_symmetry_multiplicity
 _atom_site_fract_x
 _atom_site_fract_y
 _atom_site_fract_z
 _atom_site_occupancy
  Mn  Mn0  1  0.71460602  0.58295182  0.72391065  1
  Mn  Mn1  1  0.41704586  0.14095812  0.13165433  1
  Mn  Mn2  1  0.85904444  0.99069518  0.27608706  1
  Mn  Mn3  1  0.00930507  0.28539495  0.86834815  1
  Bi  Bi4  1  0.52386185  0.92582711  0.71310792  1
  Bi  Bi5  1  0.21271818  0.81075380  0.28689593  1
  Bi  Bi6  1  0.07417668  0.78727945  0.59803484  1
  Bi  Bi7  1  0.18924446  0.47614025  0.40196444  1
  Se  Se8  1  0.32238813  0.02084844  0.59136358  1
  Se  Se9  1  0.26897641  0.67761503  0.69846190  1
  Se  Se10  1  0.42948598  0.73102677  0.40864085  1
  Se  Se11  1  0.97915052  0.57051092  0.30153774  1
  Cl  Cl12  1  0.76295020  0.13510153  0.66834864  1
  Cl  Cl13  1  0.46675041  0.09460202  0.33165083  1
  Cl  Cl14  1  0.09034049  0.04916269  0.28668096  1
  Cl  Cl15  1  0.46108204  0.47906576  0.65195223  1
  Cl  Cl16  1  0.61664243  0.87399789  0.09661022  1
  Cl  Cl17  1  0.76247893  0.80365621  0.71332004  1
  Cl  Cl18  1  0.95083787  0.23752003  0.04117509  1
  Cl  Cl19  1  0.86489515  0.53324724  0.62784732  1
  Cl  Cl20  1  0.47997539  0.38335911  0.25735894  1
  Cl  Cl21  1  0.52092892  0.17288331  -0.01798312  1
  Cl  Cl22  1  0.77738543  0.52002591  0.90338144  1
  Cl  Cl23  1  0.19633866  0.90966112  0.95882149  1
  Cl  Cl24  1  0.82711593  0.80912886  0.34804158  1
  Cl  Cl25  1  0.90540046  0.23704721  0.37215135  1
  Cl  Cl26  1  0.12600115  0.22261961  0.74264620  1
  Cl  Cl27  1  0.19087296  0.53891964  0.01798941  1
