# generated using pymatgen
data_MnCuCl4
_symmetry_space_group_name_H-M   'P 1'
_cell_length_a   5.54233802
_cell_length_b   5.54235801
_cell_length_c   10.22044031
_cell_angle_alpha   89.99999898
_cell_angle_beta   90.00000053
_cell_angle_gamma   90.00002905
_symmetry_Int_Tables_number   1
_chemical_formula_structural   MnCuCl4
_chemical_formula_sum   'Mn2 Cu2 Cl8'
_cell_volume   313.94761720
_cell_formula_units_Z   2
loop_
 _symmetry_equiv_pos_site_id
 _symmetry_equiv_pos_as_xyz
  1  'x, y, z'
loop_
 _atom_site_type_symbol
 _atom_site_label
 _atom_site_symmetry_multiplicity
 _atom_site_fract_x
 _atom_site_fract_y
 _atom_site_fract_z
 _atom_site_occupancy
  Mn  Mn0  1  -0.00000001  0.50000002  0.25000287  1
  Mn  Mn1  1  0.50000001  -0.00000005  0.74999706  1
  Cu  Cu2  1  -0.00000003  -0.00000000  -0.00000030  1
  Cu  Cu3  1  -0.00000003  0.00000000  0.49999985  1
  Cl  Cl4  1  0.25787068  0.23363906  0.87885132  1
  Cl  Cl5  1  0.74212936  0.76636089  0.87885129  1
  Cl  Cl6  1  0.23363483  0.25787012  0.37885111  1
  Cl  Cl7  1  0.25787020  0.76636605  0.62114986  1
  Cl  Cl8  1  0.74212979  0.23363395  0.62114981  1
  Cl  Cl9  1  0.23364011  0.74212939  0.12114803  1
  Cl  Cl10  1  0.76635991  0.25787069  0.12114803  1
  Cl  Cl11  1  0.76636517  0.74212987  0.37885108  1
