# generated using pymatgen
data_MnCuS2
_symmetry_space_group_name_H-M   'P 1'
_cell_length_a   5.32787391
_cell_length_b   5.32787401
_cell_length_c   6.49756671
_cell_angle_alpha   114.20744963
_cell_angle_beta   114.20745259
_cell_angle_gamma   89.94077536
_symmetry_Int_Tables_number   1
_chemical_formula_structural   MnCuS2
_chemical_formula_sum   'Mn2 Cu2 S4'
_cell_volume   150.30320725
_cell_formula_units_Z   2
loop_
 _symmetry_equiv_pos_site_id
 _symmetry_equiv_pos_as_xyz
  1  'x, y, z'
loop_
 _atom_site_type_symbol
 _atom_site_label
 _atom_site_symmetry_multiplicity
 _atom_site_fract_x
 _atom_site_fract_y
 _atom_site_fract_z
 _atom_site_occupancy
  Mn  Mn0  1  0.50000468  0.49998674  0.00004822  1
  Mn  Mn1  1  0.74998674  0.25000469  0.50004827  1
  Cu  Cu2  1  0.24995078  0.74995672  0.49997810  1
  Cu  Cu3  1  -0.00004340  -0.00004940  -0.00002210  1
  S  S4  1  0.87903396  0.87504913  0.25001264  1
  S  S5  1  0.62500526  0.12101367  0.74996114  1
  S  S6  1  0.37101325  0.37500404  0.24996027  1
  S  S7  1  0.12504873  0.62903441  0.75001348  1
