# generated using pymatgen
data_MnInS3
_symmetry_space_group_name_H-M   'P 1'
_cell_length_a   6.82887444
_cell_length_b   6.82844562
_cell_length_c   18.30331272
_cell_angle_alpha   90.00082922
_cell_angle_beta   89.99909170
_cell_angle_gamma   119.99967256
_symmetry_Int_Tables_number   1
_chemical_formula_structural   MnInS3
_chemical_formula_sum   'Mn6 In6 S18'
_cell_volume   739.15028223
_cell_formula_units_Z   6
loop_
 _symmetry_equiv_pos_site_id
 _symmetry_equiv_pos_as_xyz
  1  'x, y, z'
loop_
 _atom_site_type_symbol
 _atom_site_label
 _atom_site_symmetry_multiplicity
 _atom_site_fract_x
 _atom_site_fract_y
 _atom_site_fract_z
 _atom_site_occupancy
  Mn  Mn0  1  0.67646195  0.99111416  0.48773326  1
  Mn  Mn1  1  0.31463288  0.32343712  0.15441059  1
  Mn  Mn2  1  0.32352597  0.00886931  0.98772540  1
  Mn  Mn3  1  0.68537675  0.67656566  0.65441737  1
  Mn  Mn4  1  0.99115415  0.31467447  0.32103703  1
  Mn  Mn5  1  0.00884445  0.68533098  0.82103461  1
  In  In6  1  0.67118430  0.66947230  0.29251527  1
  In  In7  1  0.66947951  0.99829791  0.12586206  1
  In  In8  1  0.99836438  0.32887311  0.95917913  1
  In  In9  1  0.00162913  0.67111618  0.45918566  1
  In  In10  1  0.33053081  0.00169904  0.62586616  1
  In  In11  1  0.32881324  0.33053295  0.79251236  1
  S  S12  1  0.96199142  0.33179367  0.81257554  1
  S  S13  1  0.29057730  -0.00278117  0.11234510  1
  S  S14  1  0.36728605  0.33365247  0.93751493  1
  S  S15  1  -0.00267941  0.70673253  0.94565351  1
  S  S16  1  0.33190671  0.36988465  0.64591443  1
  S  S17  1  0.96634342  0.63277273  0.60420347  1
  S  S18  1  0.00266512  0.29325940  0.44565800  1
  S  S19  1  0.63271411  0.66635118  0.43751810  1
  S  S20  1  0.66810376  0.63011300  0.14591681  1
  S  S21  1  0.29332346  0.29053436  0.27902390  1
  S  S22  1  0.63021848  0.96208131  0.97926466  1
  S  S23  1  0.70666697  0.70948115  0.77902820  1
  S  S24  1  0.33364022  0.96637748  0.77085362  1
  S  S25  1  0.36977742  0.03790536  0.47926934  1
  S  S26  1  0.70943538  0.00279416  0.61235406  1
  S  S27  1  0.03800689  0.66821345  0.31258274  1
  S  S28  1  0.03366398  0.36722326  0.10419908  1
  S  S29  1  0.66636320  0.03362780  0.27084960  1
