# generated using pymatgen
data_Na2Al2Bi2S3Cl8
_symmetry_space_group_name_H-M   'P 1'
_cell_length_a   7.53314867
_cell_length_b   7.53314820
_cell_length_c   22.37192143
_cell_angle_alpha   90.00000598
_cell_angle_beta   89.99998932
_cell_angle_gamma   120.00124315
_symmetry_Int_Tables_number   1
_chemical_formula_structural   Na2Al2Bi2S3Cl8
_chemical_formula_sum   'Na4 Al4 Bi4 S6 Cl16'
_cell_volume   1099.46529880
_cell_formula_units_Z   2
loop_
 _symmetry_equiv_pos_site_id
 _symmetry_equiv_pos_as_xyz
  1  'x, y, z'
loop_
 _atom_site_type_symbol
 _atom_site_label
 _atom_site_symmetry_multiplicity
 _atom_site_fract_x
 _atom_site_fract_y
 _atom_site_fract_z
 _atom_site_occupancy
  Na  Na0  1  0.66667245  0.33334734  0.75000002  1
  Na  Na1  1  0.33334730  0.66667248  0.24999996  1
  Na  Na2  1  0.00000629  0.00000069  0.74999998  1
  Na  Na3  1  0.00000065  0.00000626  0.25000000  1
  Al  Al4  1  0.66666462  0.33333120  0.91582426  1
  Al  Al5  1  0.66666464  0.33333141  0.58417573  1
  Al  Al6  1  0.33333143  0.66666464  0.41582432  1
  Al  Al7  1  0.33333124  0.66666453  0.08417576  1
  Bi  Bi8  1  0.33333204  0.66666706  0.82538740  1
  Bi  Bi9  1  0.33333199  0.66666703  0.67461262  1
  Bi  Bi10  1  0.66666703  0.33333202  0.32538738  1
  Bi  Bi11  1  0.66666704  0.33333205  0.17461258  1
  S  S12  1  0.60470582  0.67608524  0.75000002  1
  S  S13  1  0.32391888  0.92862433  0.75000002  1
  S  S14  1  0.07136981  0.39528765  0.75000002  1
  S  S15  1  0.67608525  0.60470580  0.24999998  1
  S  S16  1  0.92862440  0.32391891  0.24999999  1
  S  S17  1  0.39528766  0.07136978  0.24999999  1
  Cl  Cl18  1  0.66666515  0.33333347  0.01031229  1
  Cl  Cl19  1  0.66666520  0.33333347  0.48968772  1
  Cl  Cl20  1  0.33333352  0.66666526  0.51031226  1
  Cl  Cl21  1  0.33333346  0.66666519  0.98968768  1
  Cl  Cl22  1  0.72659016  0.10161276  0.87790641  1
  Cl  Cl23  1  0.89839070  0.62498238  0.87790469  1
  Cl  Cl24  1  0.37501753  0.27340321  0.87790525  1
  Cl  Cl25  1  0.72659026  0.10161267  0.62209362  1
  Cl  Cl26  1  0.89839073  0.62498239  0.62209531  1
  Cl  Cl27  1  0.37501770  0.27340326  0.62209477  1
  Cl  Cl28  1  0.10161272  0.72659027  0.37790638  1
  Cl  Cl29  1  0.62498244  0.89839075  0.37790469  1
  Cl  Cl30  1  0.27340329  0.37501775  0.37790526  1
  Cl  Cl31  1  0.10161282  0.72659024  0.12209361  1
  Cl  Cl32  1  0.62498248  0.89839076  0.12209529  1
  Cl  Cl33  1  0.27340330  0.37501780  0.12209475  1
