# generated using pymatgen
data_Na2HgSI2
_symmetry_space_group_name_H-M   'P 1'
_cell_length_a   9.66923537
_cell_length_b   9.66923410
_cell_length_c   6.81400711
_cell_angle_alpha   89.99703427
_cell_angle_beta   89.99698696
_cell_angle_gamma   140.20117683
_symmetry_Int_Tables_number   1
_chemical_formula_structural   Na2HgSI2
_chemical_formula_sum   'Na4 Hg2 S2 I4'
_cell_volume   407.78428599
_cell_formula_units_Z   2
loop_
 _symmetry_equiv_pos_site_id
 _symmetry_equiv_pos_as_xyz
  1  'x, y, z'
loop_
 _atom_site_type_symbol
 _atom_site_label
 _atom_site_symmetry_multiplicity
 _atom_site_fract_x
 _atom_site_fract_y
 _atom_site_fract_z
 _atom_site_occupancy
  Na  Na0  1  0.43074670  0.10579195  0.30046413  1
  Na  Na1  1  0.10579154  0.43074627  0.30046332  1
  Na  Na2  1  0.89420760  0.56926275  0.80045644  1
  Na  Na3  1  0.56926289  0.89420771  0.80045536  1
  Hg  Hg4  1  -0.00322503  -0.00322521  0.53665977  1
  Hg  Hg5  1  0.00322455  0.00322493  0.03671492  1
  S  S6  1  0.25214813  0.25214817  0.28997746  1
  S  S7  1  0.74787324  0.74787304  0.78975709  1
  I  I8  1  0.40271370  0.07940409  0.79916118  1
  I  I9  1  0.07940427  0.40271387  0.79916150  1
  I  I10  1  0.59726828  0.92058380  0.29916303  1
  I  I11  1  0.92058412  0.59726862  0.29916380  1
