# generated using pymatgen
data_Na2PSe3
_symmetry_space_group_name_H-M   'P 1'
_cell_length_a   6.94085455
_cell_length_b   11.92335593
_cell_length_c   15.43340448
_cell_angle_alpha   90.00004402
_cell_angle_beta   90.00000255
_cell_angle_gamma   90.00000873
_symmetry_Int_Tables_number   1
_chemical_formula_structural   Na2PSe3
_chemical_formula_sum   'Na16 P8 Se24'
_cell_volume   1277.24199786
_cell_formula_units_Z   8
loop_
 _symmetry_equiv_pos_site_id
 _symmetry_equiv_pos_as_xyz
  1  'x, y, z'
loop_
 _atom_site_type_symbol
 _atom_site_label
 _atom_site_symmetry_multiplicity
 _atom_site_fract_x
 _atom_site_fract_y
 _atom_site_fract_z
 _atom_site_occupancy
  Na  Na0  1  0.92760018  0.32975060  0.63158196  1
  Na  Na1  1  0.42760075  0.17024942  0.36841917  1
  Na  Na2  1  0.07240087  0.82975080  0.86841807  1
  Na  Na3  1  0.57239896  0.67024879  0.13158120  1
  Na  Na4  1  0.56232538  0.33131370  0.12913787  1
  Na  Na5  1  0.06232368  0.16868604  0.87086188  1
  Na  Na6  1  0.43767376  0.83131417  0.37086206  1
  Na  Na7  1  -0.06232475  0.66868572  0.62913840  1
  Na  Na8  1  0.60803408  0.66674809  0.87988416  1
  Na  Na9  1  0.10803330  0.83325192  0.12011607  1
  Na  Na10  1  0.39196675  0.16674976  0.62011597  1
  Na  Na11  1  0.89196716  0.33325019  0.37988363  1
  Na  Na12  1  0.60800274  0.33828433  0.88216084  1
  Na  Na13  1  0.10800287  0.16171603  0.11783929  1
  Na  Na14  1  0.39199716  0.83828503  0.61783886  1
  Na  Na15  1  0.89199667  0.66171521  0.38216070  1
  P  P16  1  0.11417266  0.49967545  0.80931250  1
  P  P17  1  0.61417210  0.00032447  0.19068789  1
  P  P18  1  0.88582819  -0.00032441  0.69068789  1
  P  P19  1  0.38582765  0.50032435  0.30931214  1
  P  P20  1  0.10209646  0.50124772  0.96033714  1
  P  P21  1  0.60209594  -0.00124757  0.03966296  1
  P  P22  1  0.89790375  0.00124762  0.53966304  1
  P  P23  1  0.39790346  0.49875254  0.46033664  1
  Se  Se24  1  0.26267590  0.34359691  0.77110749  1
  Se  Se25  1  0.76267656  0.15640255  0.22889291  1
  Se  Se26  1  0.73732441  0.84359743  0.72889278  1
  Se  Se27  1  0.23732366  0.65640248  0.27110682  1
  Se  Se28  1  0.81143511  0.50110148  0.76305905  1
  Se  Se29  1  0.31143497  -0.00110092  0.23694137  1
  Se  Se30  1  0.18856565  0.00110216  0.73694085  1
  Se  Se31  1  0.68856532  0.49889820  0.26305887  1
  Se  Se32  1  0.09141455  0.49751876  0.49960287  1
  Se  Se33  1  0.59141490  0.00248148  0.50039717  1
  Se  Se34  1  0.90858474  0.99751931  0.00039688  1
  Se  Se35  1  0.40858544  0.50248060  -0.00039679  1
  Se  Se36  1  0.55478741  0.65223146  0.49936414  1
  Se  Se37  1  0.05478694  0.84776863  0.50063576  1
  Se  Se38  1  0.44521161  0.15223112  0.00063605  1
  Se  Se39  1  0.94521167  0.34776900  -0.00063589  1
  Se  Se40  1  0.55577536  0.34470814  0.49682886  1
  Se  Se41  1  0.05577535  0.15529214  0.50317114  1
  Se  Se42  1  0.44422493  0.84470772  0.00317064  1
  Se  Se43  1  0.94422567  0.65529255  0.99682930  1
  Se  Se44  1  0.23225495  0.34744655  0.26782615  1
  Se  Se45  1  0.73225440  0.15255300  0.73217365  1
  Se  Se46  1  0.76774444  0.84744664  0.23217341  1
  Se  Se47  1  0.26774629  0.65255261  0.76782617  1
