# generated using pymatgen
data_Na2TeO4
_symmetry_space_group_name_H-M   'P 1'
_cell_length_a   6.57135722
_cell_length_b   6.57135735
_cell_length_c   13.50394804
_cell_angle_alpha   87.18841006
_cell_angle_beta   87.18841100
_cell_angle_gamma   92.20644968
_symmetry_Int_Tables_number   1
_chemical_formula_structural   Na2TeO4
_chemical_formula_sum   'Na12 Te6 O24'
_cell_volume   581.24508242
_cell_formula_units_Z   6
loop_
 _symmetry_equiv_pos_site_id
 _symmetry_equiv_pos_as_xyz
  1  'x, y, z'
loop_
 _atom_site_type_symbol
 _atom_site_label
 _atom_site_symmetry_multiplicity
 _atom_site_fract_x
 _atom_site_fract_y
 _atom_site_fract_z
 _atom_site_occupancy
  Na  Na0  1  0.19855836  0.80144177  0.74999997  1
  Na  Na1  1  0.69009604  0.64902299  0.68678737  1
  Na  Na2  1  0.13779339  0.86220650  0.24999995  1
  Na  Na3  1  0.80144164  0.19855852  0.25000004  1
  Na  Na4  1  0.86220661  0.13779328  0.74999996  1
  Na  Na5  1  0.30990394  0.35097708  0.31321260  1
  Na  Na6  1  0.47448177  0.76892958  0.96949909  1
  Na  Na7  1  0.23107032  0.52551813  0.53050097  1
  Na  Na8  1  0.35097711  0.30990384  0.81321258  1
  Na  Na9  1  0.76892955  0.47448184  0.46949908  1
  Na  Na10  1  0.64902300  0.69009596  0.18678733  1
  Na  Na11  1  0.52551822  0.23107044  0.03050098  1
  Te  Te12  1  0.49084809  0.10286941  0.60212719  1
  Te  Te13  1  0.50914950  0.89713226  0.39787459  1
  Te  Te14  1  0.89713254  0.50915178  0.89787434  1
  Te  Te15  1  0.00000128  0.00000010  0.50000026  1
  Te  Te16  1  0.10286967  0.49085033  0.10212695  1
  Te  Te17  1  0.00000030  -0.00000143  0.00000031  1
  O  O18  1  0.94405860  0.74017530  0.56321893  1
  O  O19  1  0.82405905  0.50712980  0.04415799  1
  O  O20  1  0.62280702  0.52328223  0.86585678  1
  O  O21  1  0.13712538  0.79425183  0.08634624  1
  O  O22  1  0.52328242  0.62280688  0.36585677  1
  O  O23  1  0.47671784  0.37719124  0.63414293  1
  O  O24  1  0.79425195  0.13712561  0.58634630  1
  O  O25  1  0.94040445  0.81336694  0.88732899  1
  O  O26  1  0.37719132  0.47671762  0.13414297  1
  O  O27  1  0.74017546  0.94405901  0.06321888  1
  O  O28  1  0.20574848  0.86287445  0.41365359  1
  O  O29  1  0.05594094  0.25982455  0.43678102  1
  O  O30  1  0.48855171  0.01989145  0.26994009  1
  O  O31  1  0.81336707  0.94040439  0.38732891  1
  O  O32  1  0.17594058  0.49286986  0.95584155  1
  O  O33  1  0.01989136  0.48855139  0.76994014  1
  O  O34  1  0.86287423  0.20574840  0.91365353  1
  O  O35  1  0.25982473  0.05594141  0.93678104  1
  O  O36  1  0.51144854  0.98010910  0.73005927  1
  O  O37  1  0.50713012  0.82405911  0.54415795  1
  O  O38  1  0.05959544  0.18663267  0.11267093  1
  O  O39  1  0.18663283  0.05959551  0.61267082  1
  O  O40  1  0.98010893  0.51144824  0.23005934  1
  O  O41  1  0.49287021  0.17594062  0.45584149  1
