# generated using pymatgen
data_Na3Al7S12
_symmetry_space_group_name_H-M   'P 1'
_cell_length_a   12.69298481
_cell_length_b   9.09105758
_cell_length_c   9.32927778
_cell_angle_alpha   85.46431175
_cell_angle_beta   90.00000136
_cell_angle_gamma   90.00000396
_symmetry_Int_Tables_number   1
_chemical_formula_structural   Na3Al7S12
_chemical_formula_sum   'Na6 Al14 S24'
_cell_volume   1073.15873753
_cell_formula_units_Z   2
loop_
 _symmetry_equiv_pos_site_id
 _symmetry_equiv_pos_as_xyz
  1  'x, y, z'
loop_
 _atom_site_type_symbol
 _atom_site_label
 _atom_site_symmetry_multiplicity
 _atom_site_fract_x
 _atom_site_fract_y
 _atom_site_fract_z
 _atom_site_occupancy
  Na  Na0  1  0.29234486  0.01693609  0.49022035  1
  Na  Na1  1  0.79234546  0.98306386  0.50978066  1
  Na  Na2  1  0.01594651  0.15110731  0.19120553  1
  Na  Na3  1  0.51594644  0.84889299  0.80879461  1
  Na  Na4  1  -0.00942163  0.62888251  0.16783266  1
  Na  Na5  1  0.49057933  0.37111653  0.83216688  1
  Al  Al6  1  0.28644860  0.03742665  0.03459552  1
  Al  Al7  1  0.78644857  0.96257339  0.96540441  1
  Al  Al8  1  0.76383960  0.29023261  0.19030555  1
  Al  Al9  1  0.26383968  0.70976735  0.80969442  1
  Al  Al10  1  0.37235584  0.69642050  0.18464990  1
  Al  Al11  1  0.87235591  0.30357951  0.81535005  1
  Al  Al12  1  0.76502697  0.48196211  0.48321091  1
  Al  Al13  1  0.26502701  0.51803793  0.51678905  1
  Al  Al14  1  0.66923535  0.66897283  0.16886407  1
  Al  Al15  1  0.16923540  0.33102728  0.83113595  1
  Al  Al16  1  0.53866438  0.02275613  0.19765353  1
  Al  Al17  1  0.03866440  0.97724395  0.80234648  1
  Al  Al18  1  0.51642077  0.37205992  0.36888675  1
  Al  Al19  1  0.01642083  0.62793998  0.63111315  1
  S  S20  1  0.95997060  0.92040204  0.01511793  1
  S  S21  1  0.20139769  0.24961140  0.05961599  1
  S  S22  1  0.30162372  0.31996561  0.67295790  1
  S  S23  1  0.80162359  0.68003458  0.32704224  1
  S  S24  1  0.70139768  0.75038860  0.94038397  1
  S  S25  1  0.61115148  0.42581167  0.15489995  1
  S  S26  1  0.85069038  0.53160470  0.69136783  1
  S  S27  1  0.35069035  0.46839528  0.30863213  1
  S  S28  1  0.33760295  0.72374805  0.59344800  1
  S  S29  1  0.83760292  0.27625202  0.40655195  1
  S  S30  1  0.59518387  0.46708003  0.55369285  1
  S  S31  1  0.09518390  0.53291994  0.44630708  1
  S  S32  1  0.39341185  0.63235000  0.95807675  1
  S  S33  1  0.89341182  0.36764996  0.04192322  1
  S  S34  1  0.75039800  0.13036999  0.78147571  1
  S  S35  1  0.25039809  0.86963018  0.21852429  1
  S  S36  1  0.52827004  0.77728086  0.27513664  1
  S  S37  1  0.02827007  0.22271921  0.72486324  1
  S  S38  1  0.71978958  0.04737036  0.17594825  1
  S  S39  1  0.21978960  0.95262965  0.82405167  1
  S  S40  1  0.49660464  0.12539578  0.40062123  1
  S  S41  1  0.99660483  0.87460418  0.59937874  1
  S  S42  1  0.11115148  0.57418835  0.84510000  1
  S  S43  1  0.45997063  0.07959815  0.98488202  1
