# generated using pymatgen
data_Na3AsS4
_symmetry_space_group_name_H-M   'P 1'
_cell_length_a   6.94258572
_cell_length_b   7.45186979
_cell_length_c   8.60141759
_cell_angle_alpha   90.00000499
_cell_angle_beta   89.99998707
_cell_angle_gamma   90.00000264
_symmetry_Int_Tables_number   1
_chemical_formula_structural   Na3AsS4
_chemical_formula_sum   'Na6 As2 S8'
_cell_volume   444.99644457
_cell_formula_units_Z   2
loop_
 _symmetry_equiv_pos_site_id
 _symmetry_equiv_pos_as_xyz
  1  'x, y, z'
loop_
 _atom_site_type_symbol
 _atom_site_label
 _atom_site_symmetry_multiplicity
 _atom_site_fract_x
 _atom_site_fract_y
 _atom_site_fract_z
 _atom_site_occupancy
  Na  Na0  1  0.98845990  0.14445636  0.50000042  1
  Na  Na1  1  0.00113480  0.68959952  0.75837627  1
  Na  Na2  1  0.50113480  0.31040055  0.74162318  1
  Na  Na3  1  0.48845981  0.85554365  0.00000051  1
  Na  Na4  1  0.50113479  0.31040053  0.25837643  1
  Na  Na5  1  0.00113468  0.68959951  0.24162303  1
  As  As6  1  0.50036250  0.81144224  0.50000005  1
  As  As7  1  0.00036248  0.18855777  0.00000004  1
  S  S8  1  0.40010513  0.67222466  0.28986462  1
  S  S9  1  0.90010541  0.32777505  0.21013568  1
  S  S10  1  0.90010528  0.32777532  0.78986460  1
  S  S11  1  0.40010538  0.67222484  0.71013562  1
  S  S12  1  0.31544293  0.19019741  -0.00000002  1
  S  S13  1  0.89115558  0.91248259  -0.00000024  1
  S  S14  1  0.81544292  0.80980261  0.49999980  1
  S  S15  1  0.39115561  0.08751739  0.49999998  1
