# generated using pymatgen
data_Na3SbS3
_symmetry_space_group_name_H-M   'P 1'
_cell_length_a   17.93386178
_cell_length_b   6.91426436
_cell_length_c   7.39197810
_cell_angle_alpha   58.78137225
_cell_angle_beta   90.00003841
_cell_angle_gamma   90.00001393
_symmetry_Int_Tables_number   1
_chemical_formula_structural   Na3SbS3
_chemical_formula_sum   'Na12 Sb4 S12'
_cell_volume   783.87358072
_cell_formula_units_Z   4
loop_
 _symmetry_equiv_pos_site_id
 _symmetry_equiv_pos_as_xyz
  1  'x, y, z'
loop_
 _atom_site_type_symbol
 _atom_site_label
 _atom_site_symmetry_multiplicity
 _atom_site_fract_x
 _atom_site_fract_y
 _atom_site_fract_z
 _atom_site_occupancy
  Na  Na0  1  0.82668539  0.73851920  -0.02118611  1
  Na  Na1  1  0.70500361  0.21202626  0.52389675  1
  Na  Na2  1  0.32668528  0.76148074  0.02118646  1
  Na  Na3  1  0.93022622  0.32265819  0.66701012  1
  Na  Na4  1  0.20500364  0.28797379  0.47610225  1
  Na  Na5  1  0.56977373  0.82265793  0.66701032  1
  Na  Na6  1  0.17331467  0.26148063  0.02118627  1
  Na  Na7  1  0.29499634  0.78797372  0.47610330  1
  Na  Na8  1  0.06977384  0.67734174  0.33298992  1
  Na  Na9  1  0.43022622  0.17734193  0.33298992  1
  Na  Na10  1  0.67331471  0.23851917  -0.02118623  1
  Na  Na11  1  0.79499637  0.71202621  0.52389756  1
  Sb  Sb12  1  0.57791559  0.64260903  0.23012438  1
  Sb  Sb13  1  0.07791556  0.85739063  0.76987598  1
  Sb  Sb14  1  0.42208437  0.35739076  0.76987592  1
  Sb  Sb15  1  0.92208443  0.14260937  0.23012422  1
  S  S16  1  0.08265238  0.23715861  0.72587669  1
  S  S17  1  0.41734759  0.73715886  0.72587711  1
  S  S18  1  0.58265239  0.26284116  0.27412278  1
  S  S19  1  0.17077933  0.66026656  0.05031246  1
  S  S20  1  0.65169773  0.57748581  0.53738225  1
  S  S21  1  0.15169766  0.92251437  0.46261708  1
  S  S22  1  0.91734764  0.76284136  0.27412304  1
  S  S23  1  0.34830234  0.42251446  0.46261751  1
  S  S24  1  0.84830225  0.07748603  0.53738237  1
  S  S25  1  0.67077932  0.83973347  0.94968722  1
  S  S26  1  0.32922063  0.16026653  0.05031294  1
  S  S27  1  0.82922077  0.33973350  0.94968751  1
