# generated using pymatgen
data_Na4PIO4
_symmetry_space_group_name_H-M   'P 1'
_cell_length_a   7.18682579
_cell_length_b   9.21679808
_cell_length_c   11.42769519
_cell_angle_alpha   72.98927517
_cell_angle_beta   89.99998156
_cell_angle_gamma   89.99999254
_symmetry_Int_Tables_number   1
_chemical_formula_structural   Na4PIO4
_chemical_formula_sum   'Na16 P4 I4 O16'
_cell_volume   723.84785583
_cell_formula_units_Z   4
loop_
 _symmetry_equiv_pos_site_id
 _symmetry_equiv_pos_as_xyz
  1  'x, y, z'
loop_
 _atom_site_type_symbol
 _atom_site_label
 _atom_site_symmetry_multiplicity
 _atom_site_fract_x
 _atom_site_fract_y
 _atom_site_fract_z
 _atom_site_occupancy
  Na  Na0  1  -0.02003013  0.37610598  0.92247740  1
  Na  Na1  1  0.49063090  0.01850913  0.76026225  1
  Na  Na2  1  0.75000014  0.61962590  0.33525824  1
  Na  Na3  1  -0.00936928  -0.01850925  0.23973825  1
  Na  Na4  1  0.47997057  0.62389383  0.07752357  1
  Na  Na5  1  0.50936909  -0.01850912  0.23973775  1
  Na  Na6  1  0.24999986  0.38037412  0.66474173  1
  Na  Na7  1  -0.01845615  0.32539634  0.45541934  1
  Na  Na8  1  0.52002942  0.37610616  0.92247643  1
  Na  Na9  1  0.51845620  0.32539611  0.45541974  1
  Na  Na10  1  0.02003014  0.62389402  0.07752260  1
  Na  Na11  1  0.00936929  0.01850925  0.76026176  1
  Na  Na12  1  0.25000029  0.33400871  0.18347473  1
  Na  Na13  1  0.01845613  0.67460366  0.54458066  1
  Na  Na14  1  0.74999971  0.66599129  0.81652527  1
  Na  Na15  1  0.48154382  0.67460390  0.54458025  1
  P  P16  1  0.25000002  0.63014823  0.33013211  1
  P  P17  1  0.74999998  0.36985176  0.66986789  1
  P  P18  1  0.24999998  0.68627846  0.80256067  1
  P  P19  1  0.75000002  0.31372153  0.19743934  1
  I  I20  1  0.74999996  0.92249191  0.57686014  1
  I  I21  1  0.24999982  0.11135979  0.98464773  1
  I  I22  1  0.75000018  0.88864020  0.01535228  1
  I  I23  1  0.25000005  0.07750812  0.42313987  1
  O  O24  1  0.42850665  0.62638094  0.88075297  1
  O  O25  1  0.25000027  0.49518008  0.45240440  1
  O  O26  1  0.74999956  0.38066580  0.30940582  1
  O  O27  1  0.25000014  0.86180889  0.76040873  1
  O  O28  1  0.25000044  0.61933422  0.69059417  1
  O  O29  1  0.93171828  0.27461541  0.67180151  1
  O  O30  1  0.74999987  0.13819110  0.23959129  1
  O  O31  1  0.57149336  0.37361905  0.11924703  1
  O  O32  1  0.07149260  0.62638102  0.88075230  1
  O  O33  1  0.75000036  0.43262882  0.78217303  1
  O  O34  1  0.24999964  0.56737119  0.21782697  1
  O  O35  1  0.92850738  0.37361897  0.11924770  1
  O  O36  1  0.43171848  0.72538452  0.32819799  1
  O  O37  1  0.74999972  0.50481991  0.54759560  1
  O  O38  1  0.56828150  0.27461547  0.67180201  1
  O  O39  1  0.06828173  0.72538459  0.32819849  1
