# generated using pymatgen
data_Na4TeO5
_symmetry_space_group_name_H-M   'P 1'
_cell_length_a   8.65984464
_cell_length_b   8.65984477
_cell_length_c   11.47339965
_cell_angle_alpha   74.56745252
_cell_angle_beta   74.56745677
_cell_angle_gamma   39.01196123
_symmetry_Int_Tables_number   1
_chemical_formula_structural   Na4TeO5
_chemical_formula_sum   'Na16 Te4 O20'
_cell_volume   519.59090250
_cell_formula_units_Z   4
loop_
 _symmetry_equiv_pos_site_id
 _symmetry_equiv_pos_as_xyz
  1  'x, y, z'
loop_
 _atom_site_type_symbol
 _atom_site_label
 _atom_site_symmetry_multiplicity
 _atom_site_fract_x
 _atom_site_fract_y
 _atom_site_fract_z
 _atom_site_occupancy
  Na  Na0  1  0.19875678  0.70025431  0.50072127  1
  Na  Na1  1  0.90119418  0.09880582  0.25000001  1
  Na  Na2  1  0.09880454  0.90119546  0.74999999  1
  Na  Na3  1  0.70404100  0.50111342  0.74950547  1
  Na  Na4  1  0.49888663  0.29595892  0.75049454  1
  Na  Na5  1  0.29595926  0.49888599  0.25049430  1
  Na  Na6  1  0.09870410  0.30066367  0.25340704  1
  Na  Na7  1  0.50111398  0.70404081  0.24950568  1
  Na  Na8  1  0.69933629  0.90129591  0.24659296  1
  Na  Na9  1  0.49999994  -0.00000046  0.00000139  1
  Na  Na10  1  0.70025351  0.19875638  0.00072437  1
  Na  Na11  1  0.30066260  0.09870491  0.75340735  1
  Na  Na12  1  0.29974562  0.80124324  -0.00072124  1
  Na  Na13  1  0.90129509  0.69933741  0.74659264  1
  Na  Na14  1  0.00000047  0.50000005  0.49999861  1
  Na  Na15  1  0.80124362  0.29974656  0.49927561  1
  Te  Te16  1  0.40034521  0.89671398  0.50030316  1
  Te  Te17  1  0.59966940  0.10329047  0.49964960  1
  Te  Te18  1  0.10328612  0.59965474  0.99969681  1
  Te  Te19  1  0.89670944  0.40033067  0.00035044  1
  O  O20  1  0.84535314  0.61733688  0.09562658  1
  O  O21  1  0.85353765  0.88630238  0.89404011  1
  O  O22  1  0.45556928  0.64727929  0.60881699  1
  O  O23  1  0.69212335  0.65442517  0.39291934  1
  O  O24  1  0.38266313  0.15464687  0.40437343  1
  O  O25  1  0.61733865  0.84534767  0.59563529  1
  O  O26  1  0.88628962  0.85354700  0.39404980  1
  O  O27  1  0.54443350  0.35270575  0.39119416  1
  O  O28  1  0.15465230  0.38266136  0.90436470  1
  O  O29  1  0.35272067  0.54443073  0.89118304  1
  O  O30  1  0.98939372  0.19591881  0.89258216  1
  O  O31  1  0.01061278  0.80407127  0.10740689  1
  O  O32  1  0.34557476  0.30787673  0.10708063  1
  O  O33  1  0.30786081  0.34558583  0.60709133  1
  O  O34  1  0.64729426  0.45556651  0.10880583  1
  O  O35  1  0.80408115  0.01060631  0.60741781  1
  O  O36  1  0.65441422  0.69213915  0.89290869  1
  O  O37  1  0.19592876  0.98938719  0.39259312  1
  O  O38  1  0.14645294  0.11371042  0.10595018  1
  O  O39  1  0.11369756  0.14646242  0.60595992  1
