# generated using pymatgen
data_Na6GeSO8
_symmetry_space_group_name_H-M   'P 1'
_cell_length_a   10.13269243
_cell_length_b   10.13267852
_cell_length_c   10.13328163
_cell_angle_alpha   136.30525339
_cell_angle_beta   136.30499519
_cell_angle_gamma   63.51102487
_symmetry_Int_Tables_number   1
_chemical_formula_structural   Na6GeSO8
_chemical_formula_sum   'Na12 Ge2 S2 O16'
_cell_volume   490.04575271
_cell_formula_units_Z   2
loop_
 _symmetry_equiv_pos_site_id
 _symmetry_equiv_pos_as_xyz
  1  'x, y, z'
loop_
 _atom_site_type_symbol
 _atom_site_label
 _atom_site_symmetry_multiplicity
 _atom_site_fract_x
 _atom_site_fract_y
 _atom_site_fract_z
 _atom_site_occupancy
  Na  Na0  1  0.37500019  0.37975326  0.50475389  1
  Na  Na1  1  0.53856020  0.03856084  0.50000144  1
  Na  Na2  1  0.87500052  0.87024970  0.49524663  1
  Na  Na3  1  0.21143916  0.21143915  -0.00000213  1
  Na  Na4  1  0.62024998  0.12500059  -0.00475339  1
  Na  Na5  1  0.87499926  0.37975033  0.00475270  1
  Na  Na6  1  0.12975440  0.62499978  0.00475508  1
  Na  Na7  1  0.62024556  0.62499978  0.49524538  1
  Na  Na8  1  0.12975101  0.12499955  0.50475358  1
  Na  Na9  1  0.37499942  0.87024625  -0.00475434  1
  Na  Na10  1  -0.03856017  0.46143867  0.49999853  1
  Na  Na11  1  0.78856079  0.78856116  0.00000158  1
  Ge  Ge12  1  0.24999588  0.75000828  0.50000203  1
  Ge  Ge13  1  0.50000634  0.49999400  -0.00000065  1
  S  S14  1  0.75004662  0.24999613  0.50002282  1
  S  S15  1  -0.00000037  0.00005604  0.00003529  1
  O  O16  1  0.95010628  0.78810323  0.83806558  1
  O  O17  1  0.63653334  0.44097629  0.19556489  1
  O  O18  1  0.88799026  0.04990204  0.83799651  1
  O  O19  1  0.55902720  0.75459844  0.19556442  1
  O  O20  1  0.86202571  0.20009056  0.66202004  1
  O  O21  1  0.19097182  0.49539673  0.30443154  1
  O  O22  1  0.19097550  0.88653376  0.69556611  1
  O  O23  1  0.50460177  0.80902884  0.69556717  1
  O  O24  1  0.21185993  0.04988548  0.16190338  1
  O  O25  1  0.24539420  0.44097064  0.80443006  1
  O  O26  1  0.53810190  0.20010625  0.33806002  1
  O  O27  1  0.55902417  0.36346679  0.80443448  1
  O  O28  1  0.79987933  0.46184654  0.66188724  1
  O  O29  1  0.95009269  0.11202615  0.16202297  1
  O  O30  1  0.11346769  0.80902407  0.30443650  1
  O  O31  1  0.79989943  0.13799068  0.33799067  1
