# generated using pymatgen
data_NaAlS2
_symmetry_space_group_name_H-M   'P 1'
_cell_length_a   7.26115860
_cell_length_b   7.26107843
_cell_length_c   13.59703348
_cell_angle_alpha   82.35255454
_cell_angle_beta   82.35257329
_cell_angle_gamma   89.96378128
_symmetry_Int_Tables_number   1
_chemical_formula_structural   NaAlS2
_chemical_formula_sum   'Na8 Al8 S16'
_cell_volume   704.08570467
_cell_formula_units_Z   8
loop_
 _symmetry_equiv_pos_site_id
 _symmetry_equiv_pos_as_xyz
  1  'x, y, z'
loop_
 _atom_site_type_symbol
 _atom_site_label
 _atom_site_symmetry_multiplicity
 _atom_site_fract_x
 _atom_site_fract_y
 _atom_site_fract_z
 _atom_site_occupancy
  Na  Na0  1  0.65592618  0.78380404  0.37764749  1
  Na  Na1  1  0.21619494  0.34407357  0.12235250  1
  Na  Na2  1  0.34407370  0.21619576  0.62235269  1
  Na  Na3  1  0.78380520  0.65592639  0.87764740  1
  Na  Na4  1  0.22712789  0.84647212  0.12036319  1
  Na  Na5  1  0.15352514  0.77287247  0.37963608  1
  Na  Na6  1  0.77287235  0.15352757  0.87963704  1
  Na  Na7  1  0.84647480  0.22712772  0.62036388  1
  Al  Al8  1  0.41585442  0.28859909  0.34845237  1
  Al  Al9  1  0.71140143  0.58414611  0.15154472  1
  Al  Al10  1  0.58414556  0.71140095  0.65154748  1
  Al  Al11  1  0.28859856  0.41585392  0.84845540  1
  Al  Al12  1  0.71153629  0.09050483  0.15214739  1
  Al  Al13  1  0.90949572  0.28846429  0.34784975  1
  Al  Al14  1  0.28846369  0.90949509  0.84785275  1
  Al  Al15  1  0.09050442  0.71153574  0.65215005  1
  S  S16  1  0.43223340  0.05810685  0.25047079  1
  S  S17  1  0.94189520  0.56776421  0.24953124  1
  S  S18  1  0.56776663  0.94189329  0.74952918  1
  S  S19  1  0.05810475  0.43223581  0.75046873  1
  S  S20  1  0.43254747  0.56744968  0.25000108  1
  S  S21  1  0.56745259  0.43255036  0.74999894  1
  S  S22  1  0.94255974  0.05744202  0.25000096  1
  S  S23  1  0.05744020  0.94255808  0.74999899  1
  S  S24  1  0.73322802  0.86249131  0.05258065  1
  S  S25  1  0.13750835  0.26677134  0.44742093  1
  S  S26  1  0.26677182  0.13750867  0.94741923  1
  S  S27  1  0.86249164  0.73322858  0.55257914  1
  S  S28  1  0.63739324  0.26212526  0.45125113  1
  S  S29  1  0.73787471  0.36260605  0.04875066  1
  S  S30  1  0.36260673  0.73787477  0.54874897  1
  S  S31  1  0.26212519  0.63739405  0.95124920  1
