# generated using pymatgen
data_NaBH2OF4
_symmetry_space_group_name_H-M   'P 1'
_cell_length_a   7.80305207
_cell_length_b   7.82446299
_cell_length_c   13.01286398
_cell_angle_alpha   89.99999519
_cell_angle_beta   89.99997070
_cell_angle_gamma   89.99999699
_symmetry_Int_Tables_number   1
_chemical_formula_structural   NaBH2OF4
_chemical_formula_sum   'Na8 B8 H16 O8 F32'
_cell_volume   794.49640404
_cell_formula_units_Z   8
loop_
 _symmetry_equiv_pos_site_id
 _symmetry_equiv_pos_as_xyz
  1  'x, y, z'
loop_
 _atom_site_type_symbol
 _atom_site_label
 _atom_site_symmetry_multiplicity
 _atom_site_fract_x
 _atom_site_fract_y
 _atom_site_fract_z
 _atom_site_occupancy
  Na  Na0  1  0.89506532  0.24122064  0.15841924  1
  Na  Na1  1  0.39506531  0.75877948  0.34158018  1
  Na  Na2  1  0.60493469  0.74122052  0.84158104  1
  Na  Na3  1  0.10493477  0.25877962  0.65841961  1
  Na  Na4  1  0.10493461  0.75877944  0.84158052  1
  Na  Na5  1  0.60493466  0.24122041  0.65842012  1
  Na  Na6  1  0.39506527  0.25877938  0.15841873  1
  Na  Na7  1  0.89506522  0.74122048  0.34158066  1
  B  B8  1  0.61868429  0.37433511  0.37165980  1
  B  B9  1  0.61868437  0.87433512  0.12834032  1
  B  B10  1  0.11868430  0.12566479  0.37165985  1
  B  B11  1  0.88131614  0.37433493  0.87166003  1
  B  B12  1  0.38131611  0.62566483  0.62833981  1
  B  B13  1  0.38131609  0.12566521  0.87166003  1
  B  B14  1  0.88131607  0.87433513  0.62833976  1
  B  B15  1  0.11868417  0.62566506  0.12834038  1
  H  H16  1  0.65714322  0.42220642  0.02895702  1
  H  H17  1  0.15714337  0.57779337  0.47104456  1
  H  H18  1  0.84285584  0.92220805  0.97104908  1
  H  H19  1  0.34285569  0.07779182  0.52894934  1
  H  H20  1  0.34285621  0.57779245  0.97104728  1
  H  H21  1  0.84285579  0.42220808  0.52894961  1
  H  H22  1  0.15714314  0.07779387  0.02895820  1
  H  H23  1  0.65714345  0.92220658  0.47104409  1
  H  H24  1  0.84210087  0.01949872  0.86746042  1
  H  H25  1  0.34210116  0.98050391  0.63253883  1
  H  H26  1  0.34210061  0.48049845  0.86745974  1
  H  H27  1  0.84210114  0.51949596  0.63253877  1
  H  H28  1  0.15789989  0.98049385  0.13254166  1
  H  H29  1  0.65789974  0.01950469  0.36745883  1
  H  H30  1  0.65789979  0.51950497  0.13254125  1
  H  H31  1  0.15789960  0.48049669  0.36745922  1
  O  O32  1  0.64632369  0.40476796  0.10314737  1
  O  O33  1  0.85367645  0.90477259  0.89684422  1
  O  O34  1  0.35367636  0.09522479  0.60315873  1
  O  O35  1  0.35367656  0.59522972  0.89684693  1
  O  O36  1  0.85367647  0.40477556  0.60315843  1
  O  O37  1  0.14632379  0.09523321  0.10314582  1
  O  O38  1  0.64632375  0.90476796  0.39685075  1
  O  O39  1  0.14632365  0.59523057  0.39684991  1
  F  F40  1  0.67696588  0.23861065  0.30659951  1
  F  F41  1  0.17696594  0.26138949  0.30659955  1
  F  F42  1  0.82303415  0.23861027  0.80659935  1
  F  F43  1  0.32303411  0.76138996  0.69340076  1
  F  F44  1  0.55152417  0.80518099  0.03758498  1
  F  F45  1  0.82303405  0.73861013  0.69340071  1
  F  F46  1  0.17696589  0.76138922  0.19340036  1
  F  F47  1  0.67696605  0.73861070  0.19340028  1
  F  F48  1  0.49315251  0.96919127  0.18280892  1
  F  F49  1  -0.00684759  0.03080859  0.31719096  1
  F  F50  1  0.00684756  0.46919113  0.81719079  1
  F  F51  1  0.50684761  0.53080881  0.68280933  1
  F  F52  1  0.50684749  0.03080875  0.81719074  1
  F  F53  1  0.00684753  0.96919119  0.68280938  1
  F  F54  1  0.76003746  0.48335685  0.39464984  1
  F  F55  1  0.49315233  0.46919144  0.31719098  1
  F  F56  1  0.26003764  0.51664318  0.10535008  1
  F  F57  1  0.73996236  0.98335654  0.60535033  1
  F  F58  1  0.23996216  0.01664323  0.89464980  1
  F  F59  1  0.23996234  0.51664346  0.60535041  1
  F  F60  1  0.73996229  0.48335660  0.89464963  1
  F  F61  1  0.26003749  0.01664320  0.39464992  1
  F  F62  1  0.76003750  0.98335682  0.10535000  1
  F  F63  1  0.55152417  0.30518109  0.46241490  1
  F  F64  1  0.05152441  0.69481897  0.03758501  1
  F  F65  1  0.94847568  0.80518116  0.53758560  1
  F  F66  1  0.44847558  0.19481885  0.96241449  1
  F  F67  1  0.44847561  0.69481892  0.53758558  1
  F  F68  1  0.94847549  0.30518104  0.96241445  1
  F  F69  1  0.05152409  0.19481890  0.46241494  1
  F  F70  1  -0.00684755  0.53080870  0.18280884  1
  F  F71  1  0.32303398  0.26138950  0.80659944  1
