# generated using pymatgen
data_NaHg2NO5
_symmetry_space_group_name_H-M   'P 1'
_cell_length_a   6.65895155
_cell_length_b   6.74773195
_cell_length_c   13.01649939
_cell_angle_alpha   90.00001897
_cell_angle_beta   89.99953979
_cell_angle_gamma   89.99978982
_symmetry_Int_Tables_number   1
_chemical_formula_structural   NaHg2NO5
_chemical_formula_sum   'Na4 Hg8 N4 O20'
_cell_volume   584.86802577
_cell_formula_units_Z   4
loop_
 _symmetry_equiv_pos_site_id
 _symmetry_equiv_pos_as_xyz
  1  'x, y, z'
loop_
 _atom_site_type_symbol
 _atom_site_label
 _atom_site_symmetry_multiplicity
 _atom_site_fract_x
 _atom_site_fract_y
 _atom_site_fract_z
 _atom_site_occupancy
  Na  Na0  1  0.66947658  0.74999935  0.15514315  1
  Na  Na1  1  0.83052334  0.25000050  0.65514376  1
  Na  Na2  1  0.33052318  0.24999972  0.84485679  1
  Na  Na3  1  0.16947652  0.75000003  0.34485632  1
  Hg  Hg4  1  0.79224118  -0.00069148  0.90681920  1
  Hg  Hg5  1  0.20775891  0.00069129  0.09318060  1
  Hg  Hg6  1  0.70775878  0.00069146  0.40681935  1
  Hg  Hg7  1  0.29224126  -0.00069136  0.59318065  1
  Hg  Hg8  1  0.70775881  0.49930874  0.40681956  1
  Hg  Hg9  1  0.20775937  0.49930843  0.09318082  1
  Hg  Hg10  1  0.29224086  0.50069145  0.59318070  1
  Hg  Hg11  1  0.79224121  0.50069115  0.90681956  1
  N  N12  1  0.20221394  0.24999686  0.34996577  1
  N  N13  1  0.79779073  0.74998213  0.65003128  1
  N  N14  1  0.70220900  0.25002485  0.15003105  1
  N  N15  1  0.29778664  0.75001200  0.84996622  1
  O  O16  1  0.32342225  0.25000043  0.27557291  1
  O  O17  1  0.13588429  0.24999985  0.01142700  1
  O  O18  1  0.63588420  0.24999958  0.48857299  1
  O  O19  1  0.67657709  0.75000164  0.72442741  1
  O  O20  1  0.78954910  0.75000034  0.32817105  1
  O  O21  1  0.86411580  0.75000049  0.98857293  1
  O  O22  1  0.17657369  0.74999877  0.77557010  1
  O  O23  1  0.64116564  0.08762058  0.11145646  1
  O  O24  1  0.28954937  0.75000035  0.17182908  1
  O  O25  1  0.35882822  0.91235838  0.88853976  1
  O  O26  1  0.82343307  0.24999775  0.22443405  1
  O  O27  1  0.71045079  0.24999985  0.82817087  1
  O  O28  1  0.35883139  0.58763108  0.88854156  1
  O  O29  1  0.36411570  0.75000026  0.51142701  1
  O  O30  1  0.21045102  0.24999969  0.67182901  1
  O  O31  1  0.14117124  0.41236060  0.38853978  1
  O  O32  1  0.14117193  0.08764198  0.38853937  1
  O  O33  1  0.85882377  0.58765332  0.61146312  1
  O  O34  1  0.64117240  0.41235724  0.11146050  1
  O  O35  1  0.85882873  0.91236270  0.61146024  1
