# generated using pymatgen
data_NaHg2AsO4
_symmetry_space_group_name_H-M   'P 1'
_cell_length_a   6.32730843
_cell_length_b   9.28441713
_cell_length_c   10.34160636
_cell_angle_alpha   89.99987530
_cell_angle_beta   90.00000090
_cell_angle_gamma   90.00068371
_symmetry_Int_Tables_number   1
_chemical_formula_structural   NaHg2AsO4
_chemical_formula_sum   'Na4 Hg8 As4 O16'
_cell_volume   607.52150000
_cell_formula_units_Z   4
loop_
 _symmetry_equiv_pos_site_id
 _symmetry_equiv_pos_as_xyz
  1  'x, y, z'
loop_
 _atom_site_type_symbol
 _atom_site_label
 _atom_site_symmetry_multiplicity
 _atom_site_fract_x
 _atom_site_fract_y
 _atom_site_fract_z
 _atom_site_occupancy
  Na  Na0  1  0.50000291  0.03934830  0.81589952  1
  Na  Na1  1  0.49999721  0.46065266  0.31589968  1
  Na  Na2  1  0.50000275  0.53934774  0.68410058  1
  Na  Na3  1  0.49999708  0.96065248  0.18410041  1
  Hg  Hg4  1  0.29091320  0.76138106  0.45661566  1
  Hg  Hg5  1  0.70908731  0.23861909  0.54338453  1
  Hg  Hg6  1  0.29091304  0.26138126  0.04338412  1
  Hg  Hg7  1  0.29091441  0.23862068  0.54338797  1
  Hg  Hg8  1  0.70908555  0.26137907  0.04338826  1
  Hg  Hg9  1  0.70908684  0.73861882  0.95661578  1
  Hg  Hg10  1  0.29091460  0.73862091  0.95661174  1
  Hg  Hg11  1  0.70908515  0.76137935  0.45661212  1
  As  As12  1  0.00001513  0.93574003  0.70319714  1
  As  As13  1  0.00001455  0.43573949  0.79680338  1
  As  As14  1  -0.00001464  0.06426062  0.29680532  1
  As  As15  1  -0.00001406  0.56426128  0.20319420  1
  O  O16  1  -0.00000103  0.70309496  0.08733669  1
  O  O17  1  0.22936456  0.46980622  0.18345234  1
  O  O18  1  -0.00000040  0.86009939  0.85724828  1
  O  O19  1  -0.00000028  0.36009929  0.64275147  1
  O  O20  1  0.00000098  0.29690308  0.91266532  1
  O  O21  1  0.22935465  0.53018907  0.81654572  1
  O  O22  1  0.00000040  0.13990119  0.14275044  1
  O  O23  1  0.22936543  0.96980594  0.31654798  1
  O  O24  1  0.00000030  0.63990071  0.35724897  1
  O  O25  1  0.22935370  0.03018864  0.68345428  1
  O  O26  1  0.77063470  0.03019374  0.68345184  1
  O  O27  1  -0.00000103  0.20309623  0.41266414  1
  O  O28  1  0.77064620  0.46981096  0.18345464  1
  O  O29  1  0.00000099  0.79690289  0.58733484  1
  O  O30  1  0.77063410  0.53019395  0.81654804  1
  O  O31  1  0.77064566  0.96981090  0.31654559  1
