# generated using pymatgen
data_NaIO3
_symmetry_space_group_name_H-M   'P 1'
_cell_length_a   5.91541691
_cell_length_b   7.17610573
_cell_length_c   15.28868729
_cell_angle_alpha   89.99999667
_cell_angle_beta   89.99999461
_cell_angle_gamma   89.99999846
_symmetry_Int_Tables_number   1
_chemical_formula_structural   NaIO3
_chemical_formula_sum   'Na8 I8 O24'
_cell_volume   648.99953424
_cell_formula_units_Z   8
loop_
 _symmetry_equiv_pos_site_id
 _symmetry_equiv_pos_as_xyz
  1  'x, y, z'
loop_
 _atom_site_type_symbol
 _atom_site_label
 _atom_site_symmetry_multiplicity
 _atom_site_fract_x
 _atom_site_fract_y
 _atom_site_fract_z
 _atom_site_occupancy
  Na  Na0  1  -0.01474510  0.60685076  0.70328390  1
  Na  Na1  1  0.48525473  0.39314928  0.29671607  1
  Na  Na2  1  -0.01474500  0.39314929  0.20328419  1
  Na  Na3  1  0.48525490  0.60685071  0.79671578  1
  Na  Na4  1  0.98376569  0.12420465  0.70518068  1
  Na  Na5  1  0.48376575  0.87579531  0.29481979  1
  Na  Na6  1  0.98376564  0.87579527  0.20518106  1
  Na  Na7  1  0.48376575  0.12420473  0.79481940  1
  I  I8  1  0.59415213  0.86796775  0.59173167  1
  I  I9  1  0.09415206  0.13203236  0.40826826  1
  I  I10  1  0.59415236  0.13203223  0.09173179  1
  I  I11  1  0.09415230  0.86796761  0.90826814  1
  I  I12  1  0.51352005  0.36256438  0.59765905  1
  I  I13  1  0.01352004  0.63743548  0.40234095  1
  I  I14  1  0.51352015  0.63743569  0.09765916  1
  I  I15  1  0.01352014  0.36256449  0.90234084  1
  O  O16  1  0.19597887  0.37030725  0.80467979  1
  O  O17  1  0.69597892  0.62969263  0.19532021  1
  O  O18  1  0.19597887  0.62969275  0.30467991  1
  O  O19  1  0.69597893  0.37030738  0.69532007  1
  O  O20  1  0.16359540  0.86071679  0.79093652  1
  O  O21  1  0.66359557  0.13928319  0.20906340  1
  O  O22  1  0.16359550  0.13928323  0.29093667  1
  O  O23  1  0.66359570  0.86071680  0.70906325  1
  O  O24  1  0.28275565  0.06315222  0.93706365  1
  O  O25  1  0.78275552  0.93684751  0.06293631  1
  O  O26  1  0.28275529  0.93684779  0.43706384  1
  O  O27  1  0.78275523  0.06315248  0.56293610  1
  O  O28  1  0.83722686  0.16500499  0.86559395  1
  O  O29  1  0.33722682  0.83499501  0.13440613  1
  O  O30  1  0.83722691  0.83499504  0.36559398  1
  O  O31  1  0.33722686  0.16500497  0.63440609  1
  O  O32  1  0.32783796  0.55954741  0.62659267  1
  O  O33  1  0.82783787  0.44045256  0.37340717  1
  O  O34  1  0.32783802  0.44045259  0.12659271  1
  O  O35  1  0.82783797  0.55954741  0.87340713  1
  O  O36  1  0.77951339  0.67260666  0.55802446  1
  O  O37  1  0.27951323  0.32739359  0.44197538  1
  O  O38  1  0.77951364  0.32739331  0.05802459  1
  O  O39  1  0.27951349  0.67260645  0.94197526  1
