# generated using pymatgen
data_NaSbS2
_symmetry_space_group_name_H-M   'P 1'
_cell_length_a   4.00840298
_cell_length_b   7.15669361
_cell_length_c   13.85169407
_cell_angle_alpha   99.03734298
_cell_angle_beta   90.00018411
_cell_angle_gamma   106.26282334
_symmetry_Int_Tables_number   1
_chemical_formula_structural   NaSbS2
_chemical_formula_sum   'Na4 Sb4 S8'
_cell_volume   376.32155108
_cell_formula_units_Z   4
loop_
 _symmetry_equiv_pos_site_id
 _symmetry_equiv_pos_as_xyz
  1  'x, y, z'
loop_
 _atom_site_type_symbol
 _atom_site_label
 _atom_site_symmetry_multiplicity
 _atom_site_fract_x
 _atom_site_fract_y
 _atom_site_fract_z
 _atom_site_occupancy
  Na  Na0  1  0.50000002  -0.00000000  -0.00000001  1
  Na  Na1  1  0.01358884  -0.00000159  0.75000374  1
  Na  Na2  1  0.50000003  0.00000001  0.50000001  1
  Na  Na3  1  0.98641068  0.00000158  0.24999628  1
  Sb  Sb4  1  0.23509529  0.51171108  0.62818301  1
  Sb  Sb5  1  0.72338379  0.48828497  0.87181579  1
  Sb  Sb6  1  0.76490480  0.48828891  0.37181700  1
  Sb  Sb7  1  0.27661631  0.51171504  0.12818420  1
  S  S8  1  0.15641277  0.26236231  0.93479047  1
  S  S9  1  -0.10595290  0.73763904  0.56521008  1
  S  S10  1  0.84358731  0.73763769  0.06520950  1
  S  S11  1  0.10595300  0.26236097  0.43478993  1
  S  S12  1  0.61609750  0.27268036  0.19316247  1
  S  S13  1  0.65658238  0.27268149  0.69316401  1
  S  S14  1  0.38390254  0.72731967  0.80683752  1
  S  S15  1  0.34341764  0.72731848  0.30683600  1
