# generated using pymatgen
data_Nb2Pb3O8
_symmetry_space_group_name_H-M   'P 1'
_cell_length_a   6.73021839
_cell_length_b   7.62645400
_cell_length_c   9.99357256
_cell_angle_alpha   63.99183519
_cell_angle_beta   90.00001048
_cell_angle_gamma   90.00000704
_symmetry_Int_Tables_number   1
_chemical_formula_structural   Nb2Pb3O8
_chemical_formula_sum   'Nb4 Pb6 O16'
_cell_volume   461.00175457
_cell_formula_units_Z   2
loop_
 _symmetry_equiv_pos_site_id
 _symmetry_equiv_pos_as_xyz
  1  'x, y, z'
loop_
 _atom_site_type_symbol
 _atom_site_label
 _atom_site_symmetry_multiplicity
 _atom_site_fract_x
 _atom_site_fract_y
 _atom_site_fract_z
 _atom_site_occupancy
  Nb  Nb0  1  0.02246886  0.79985566  0.40553670  1
  Nb  Nb1  1  0.52246875  0.20014427  0.09446332  1
  Nb  Nb2  1  0.97753143  0.20014409  0.59446359  1
  Nb  Nb3  1  0.47753157  0.79985583  0.90553647  1
  Pb  Pb4  1  -0.00000023  -0.00000102  0.00000011  1
  Pb  Pb5  1  0.50000015  -0.00000018  0.49999953  1
  Pb  Pb6  1  0.89149268  0.60774215  0.79007679  1
  Pb  Pb7  1  0.39149279  0.39225745  0.70992345  1
  Pb  Pb8  1  0.10850724  0.39225774  0.20992290  1
  Pb  Pb9  1  0.60850728  0.60774205  0.29007737  1
  O  O10  1  0.25245488  0.73221200  0.52168117  1
  O  O11  1  0.75245407  0.26778789  0.97831922  1
  O  O12  1  0.74754519  0.26778843  0.47831774  1
  O  O13  1  0.24754515  0.73221195  0.02168137  1
  O  O14  1  0.69370879  0.77453136  0.03545114  1
  O  O15  1  0.19370879  0.22546855  0.46454914  1
  O  O16  1  0.30629115  0.22546900  0.96454953  1
  O  O17  1  0.80629143  0.77453089  0.53545054  1
  O  O18  1  0.03499505  0.35656006  0.69480772  1
  O  O19  1  0.53499535  0.64344084  0.80519161  1
  O  O20  1  0.96500515  0.64344177  0.30519011  1
  O  O21  1  0.46500495  0.35655850  0.19480970  1
  O  O22  1  0.05085288  0.05030965  0.25228377  1
  O  O23  1  0.55085256  0.94969009  0.24771688  1
  O  O24  1  0.94914684  0.94969220  0.74771604  1
  O  O25  1  0.44914725  0.05030879  0.75228410  1
