# generated using pymatgen
data_Nb2PbO6
_symmetry_space_group_name_H-M   'P 1'
_cell_length_a   5.37472973
_cell_length_b   5.37473260
_cell_length_c   5.39411620
_cell_angle_alpha   90.00006198
_cell_angle_beta   89.99999979
_cell_angle_gamma   120.00010375
_symmetry_Int_Tables_number   1
_chemical_formula_structural   Nb2PbO6
_chemical_formula_sum   'Nb2 Pb1 O6'
_cell_volume   134.94722800
_cell_formula_units_Z   1
loop_
 _symmetry_equiv_pos_site_id
 _symmetry_equiv_pos_as_xyz
  1  'x, y, z'
loop_
 _atom_site_type_symbol
 _atom_site_label
 _atom_site_symmetry_multiplicity
 _atom_site_fract_x
 _atom_site_fract_y
 _atom_site_fract_z
 _atom_site_occupancy
  Nb  Nb0  1  0.66666728  0.33333372  0.49999985  1
  Nb  Nb1  1  0.33333273  0.66666627  0.49999979  1
  Pb  Pb2  1  0.00000003  -0.00000000  0.00000015  1
  O  O3  1  0.38076197  0.38076190  0.70752119  1
  O  O4  1  0.61923818  0.00000021  0.70752130  1
  O  O5  1  0.00000031  0.61923827  0.70752096  1
  O  O6  1  0.38076186  -0.00000020  0.29247876  1
  O  O7  1  -0.00000033  0.38076175  0.29247911  1
  O  O8  1  0.61923798  0.61923809  0.29247888  1
