# generated using pymatgen
data_NbClF8
_symmetry_space_group_name_H-M   'P 1'
_cell_length_a   5.89839309
_cell_length_b   5.89839350
_cell_length_c   10.41272139
_cell_angle_alpha   73.30788207
_cell_angle_beta   73.30788007
_cell_angle_gamma   87.52055960
_symmetry_Int_Tables_number   1
_chemical_formula_structural   NbClF8
_chemical_formula_sum   'Nb2 Cl2 F16'
_cell_volume   332.07796432
_cell_formula_units_Z   2
loop_
 _symmetry_equiv_pos_site_id
 _symmetry_equiv_pos_as_xyz
  1  'x, y, z'
loop_
 _atom_site_type_symbol
 _atom_site_label
 _atom_site_symmetry_multiplicity
 _atom_site_fract_x
 _atom_site_fract_y
 _atom_site_fract_z
 _atom_site_occupancy
  Nb  Nb0  1  0.00000359  -0.00000036  0.50000109  1
  Nb  Nb1  1  0.00000362  0.00000534  0.00000045  1
  Cl  Cl2  1  0.34925662  0.65074174  0.24999938  1
  Cl  Cl3  1  0.65074188  0.34925679  0.74999938  1
  F  F4  1  0.59693341  0.56095722  0.82321270  1
  F  F5  1  0.43904195  0.40306550  0.67678648  1
  F  F6  1  0.40306544  0.43904195  0.17678664  1
  F  F7  1  0.56095700  0.59693330  0.32321289  1
  F  F8  1  0.20228182  0.23098305  0.51572323  1
  F  F9  1  0.76902182  0.79772147  0.98427673  1
  F  F10  1  0.79772005  0.76902081  0.48427675  1
  F  F11  1  0.23098391  0.20228283  0.01572327  1
  F  F12  1  0.25860626  0.94179626  0.34281221  1
  F  F13  1  0.05820248  0.74139307  0.15718609  1
  F  F14  1  0.74139278  0.05820280  0.65718632  1
  F  F15  1  0.94179572  0.25860653  0.84281226  1
  F  F16  1  0.89170271  0.24686956  0.36937706  1
  F  F17  1  0.75312326  0.10829589  0.13062507  1
  F  F18  1  0.10829631  0.75312360  0.63062513  1
  F  F19  1  0.24686936  0.89170266  0.86937687  1
