# generated using pymatgen
data_PAu2Se3
_symmetry_space_group_name_H-M   'P 1'
_cell_length_a   6.54317183
_cell_length_b   11.67817100
_cell_length_c   15.85165878
_cell_angle_alpha   89.99999700
_cell_angle_beta   90.00016924
_cell_angle_gamma   90.00000937
_symmetry_Int_Tables_number   1
_chemical_formula_structural   PAu2Se3
_chemical_formula_sum   'P8 Au16 Se24'
_cell_volume   1211.26138144
_cell_formula_units_Z   8
loop_
 _symmetry_equiv_pos_site_id
 _symmetry_equiv_pos_as_xyz
  1  'x, y, z'
loop_
 _atom_site_type_symbol
 _atom_site_label
 _atom_site_symmetry_multiplicity
 _atom_site_fract_x
 _atom_site_fract_y
 _atom_site_fract_z
 _atom_site_occupancy
  P  P0  1  0.04818701  0.45966796  0.80935036  1
  P  P1  1  0.54818871  0.04033180  0.19064947  1
  P  P2  1  0.95181281  0.95966794  0.69064964  1
  P  P3  1  0.45181141  0.54033184  0.30935054  1
  P  P4  1  -0.02487672  0.49588588  0.95298262  1
  P  P5  1  0.47512117  0.00411466  0.04701771  1
  P  P6  1  0.02487658  -0.00411412  0.54701738  1
  P  P7  1  0.52487894  0.50411461  0.45298231  1
  Au  Au8  1  0.75665093  0.35903457  0.60773067  1
  Au  Au9  1  0.25665092  0.14096534  0.39226921  1
  Au  Au10  1  0.24334899  0.85903466  0.89226933  1
  Au  Au11  1  0.74334913  0.64096534  0.10773077  1
  Au  Au12  1  0.37636692  0.31606680  0.09572918  1
  Au  Au13  1  0.87636662  0.18393318  0.90427082  1
  Au  Au14  1  0.62363298  0.81606677  0.40427095  1
  Au  Au15  1  0.12363365  0.68393308  0.59572920  1
  Au  Au16  1  0.49623934  0.62655973  0.88202296  1
  Au  Au17  1  -0.00376058  0.87344033  0.11797701  1
  Au  Au18  1  0.50376055  0.12655971  0.61797701  1
  Au  Au19  1  0.00376063  0.37344032  0.38202297  1
  Au  Au20  1  0.50217124  0.34299209  0.87777902  1
  Au  Au21  1  0.00217143  0.15700793  0.12222107  1
  Au  Au22  1  0.49782866  0.84299208  0.62222095  1
  Au  Au23  1  0.99782871  0.65700788  0.37777894  1
  Se  Se24  1  0.18391622  0.28289435  0.80488894  1
  Se  Se25  1  0.68391607  0.21710559  0.19511107  1
  Se  Se26  1  0.81608359  0.78289438  0.69511107  1
  Se  Se27  1  0.31608415  0.71710560  0.30488899  1
  Se  Se28  1  0.74886268  0.46618779  0.74099987  1
  Se  Se29  1  0.24886191  0.03381217  0.25900033  1
  Se  Se30  1  0.25113717  0.96618785  0.75900012  1
  Se  Se31  1  0.75113821  0.53381222  0.24099967  1
  Se  Se32  1  0.25250143  0.48690612  0.53478382  1
  Se  Se33  1  0.75250236  0.01309370  0.46521646  1
  Se  Se34  1  0.74749866  0.98690623  0.96521618  1
  Se  Se35  1  0.24749763  0.51309370  0.03478345  1
  Se  Se36  1  0.74442400  0.63995389  0.49522343  1
  Se  Se37  1  0.24442403  0.86004570  0.50477649  1
  Se  Se38  1  0.25557619  0.13995394  0.00477660  1
  Se  Se39  1  0.75557574  0.36004571  -0.00477647  1
  Se  Se40  1  0.68048713  0.32489755  0.45567653  1
  Se  Se41  1  0.18048699  0.17510230  0.54432351  1
  Se  Se42  1  0.31951291  0.82489758  0.04432345  1
  Se  Se43  1  0.81951295  0.67510231  0.95567646  1
  Se  Se44  1  0.26065767  0.39262243  0.26924000  1
  Se  Se45  1  0.76065690  0.10737806  0.73075997  1
  Se  Se46  1  0.73934240  0.89262242  0.23075997  1
  Se  Se47  1  0.23934297  0.60737805  0.76923999  1
