# generated using pymatgen
data_PCl3O
_symmetry_space_group_name_H-M   'P 1'
_cell_length_a   6.69356774
_cell_length_b   8.18698190
_cell_length_c   10.82161613
_cell_angle_alpha   111.62048482
_cell_angle_beta   89.99999459
_cell_angle_gamma   90.00000711
_symmetry_Int_Tables_number   1
_chemical_formula_structural   PCl3O
_chemical_formula_sum   'P4 Cl12 O4'
_cell_volume   551.30339565
_cell_formula_units_Z   4
loop_
 _symmetry_equiv_pos_site_id
 _symmetry_equiv_pos_as_xyz
  1  'x, y, z'
loop_
 _atom_site_type_symbol
 _atom_site_label
 _atom_site_symmetry_multiplicity
 _atom_site_fract_x
 _atom_site_fract_y
 _atom_site_fract_z
 _atom_site_occupancy
  P  P0  1  0.55438152  0.35137152  0.00637553  1
  P  P1  1  0.05438147  0.64862849  0.49362445  1
  P  P2  1  0.44561849  0.64862848  0.99362447  1
  P  P3  1  0.94561848  0.35137151  0.50637555  1
  Cl  Cl4  1  0.02985713  0.34366450  0.68357712  1
  Cl  Cl5  1  0.52985713  0.65633556  0.81642291  1
  Cl  Cl6  1  0.97014286  0.65633549  0.31642286  1
  Cl  Cl7  1  0.47014290  0.34366446  0.18357711  1
  Cl  Cl8  1  0.06457011  0.15135012  0.35104336  1
  Cl  Cl9  1  0.56457007  0.84864987  0.14895666  1
  Cl  Cl10  1  0.93542988  0.84864988  0.64895665  1
  Cl  Cl11  1  0.43542994  0.15135012  0.85104334  1
  Cl  Cl12  1  0.67286321  0.22260994  0.50075409  1
  Cl  Cl13  1  0.17286319  0.77738997  0.99924593  1
  Cl  Cl14  1  0.32713679  0.77739005  0.49924591  1
  Cl  Cl15  1  0.82713684  0.22261003  0.00075407  1
  O  O16  1  0.66426186  0.51656089  0.99229563  1
  O  O17  1  0.16426184  0.48343913  0.50770432  1
  O  O18  1  0.33573815  0.48343912  0.00770438  1
  O  O19  1  0.83573813  0.51656086  0.49229567  1
