# generated using pymatgen
data_PdRuF7
_symmetry_space_group_name_H-M   'P 1'
_cell_length_a   5.42233457
_cell_length_b   8.64599137
_cell_length_c   12.22922197
_cell_angle_alpha   70.68155748
_cell_angle_beta   90.00059317
_cell_angle_gamma   90.00245668
_symmetry_Int_Tables_number   1
_chemical_formula_structural   PdRuF7
_chemical_formula_sum   'Pd4 Ru4 F28'
_cell_volume   541.04248297
_cell_formula_units_Z   4
loop_
 _symmetry_equiv_pos_site_id
 _symmetry_equiv_pos_as_xyz
  1  'x, y, z'
loop_
 _atom_site_type_symbol
 _atom_site_label
 _atom_site_symmetry_multiplicity
 _atom_site_fract_x
 _atom_site_fract_y
 _atom_site_fract_z
 _atom_site_occupancy
  Pd  Pd0  1  0.29283040  0.87030101  0.71145430  1
  Pd  Pd1  1  0.79283180  0.12970028  0.78855345  1
  Pd  Pd2  1  0.70723420  0.12963773  0.28851547  1
  Pd  Pd3  1  0.20722854  0.87036594  0.21147231  1
  Ru  Ru4  1  0.20658048  0.27925641  0.43660139  1
  Ru  Ru5  1  0.70655316  0.72074651  0.06338972  1
  Ru  Ru6  1  0.79337873  0.72023099  0.56349268  1
  Ru  Ru7  1  0.29338408  0.27976319  0.93651893  1
  F  F8  1  0.61452884  0.97508535  0.72682841  1
  F  F9  1  0.11453679  0.02493271  0.77314559  1
  F  F10  1  0.38538280  0.02480359  0.27333435  1
  F  F11  1  0.88537759  0.97518661  0.22666769  1
  F  F12  1  0.39344289  0.30850181  0.55461759  1
  F  F13  1  0.89339335  0.69149502  0.94538085  1
  F  F14  1  0.60602199  0.69116096  0.44554734  1
  F  F15  1  0.10600424  0.30885029  0.05445096  1
  F  F16  1  0.48040904  0.25101041  0.80512256  1
  F  F17  1  0.98044479  0.74899297  0.69488857  1
  F  F18  1  0.51968880  0.74894270  0.19504559  1
  F  F19  1  0.01969786  0.25106109  0.30495559  1
  F  F20  1  0.98964307  0.29113252  0.84407632  1
  F  F21  1  0.48962651  0.70887458  0.65592845  1
  F  F22  1  0.01043577  0.70922247  0.15586384  1
  F  F23  1  0.51047834  0.29077700  0.34413020  1
  F  F24  1  0.24995275  0.05066478  -0.00195418  1
  F  F25  1  0.74996454  0.94932918  0.50195365  1
  F  F26  1  0.75017756  0.94974943  0.00170117  1
  F  F27  1  0.25020890  0.05023941  0.49829927  1
  F  F28  1  0.32743742  0.50493131  0.86508136  1
  F  F29  1  0.82743453  0.49503309  0.63493357  1
  F  F30  1  0.67277823  0.49557942  0.13469789  1
  F  F31  1  0.17280394  0.50444409  0.36529808  1
  F  F32  1  0.58244389  0.26515157  0.01993648  1
  F  F33  1  0.08241889  0.73482610  0.48007737  1
  F  F34  1  0.41761336  0.73530309  0.97999628  1
  F  F35  1  0.91763195  0.26471637  0.51999691  1
