# generated using pymatgen
data_PH2Se3
_symmetry_space_group_name_H-M   'P 1'
_cell_length_a   6.68703699
_cell_length_b   11.18085203
_cell_length_c   16.05862219
_cell_angle_alpha   89.99999335
_cell_angle_beta   89.99997135
_cell_angle_gamma   90.00000400
_symmetry_Int_Tables_number   1
_chemical_formula_structural   PH2Se3
_chemical_formula_sum   'P8 H16 Se24'
_cell_volume   1200.65132953
_cell_formula_units_Z   8
loop_
 _symmetry_equiv_pos_site_id
 _symmetry_equiv_pos_as_xyz
  1  'x, y, z'
loop_
 _atom_site_type_symbol
 _atom_site_label
 _atom_site_symmetry_multiplicity
 _atom_site_fract_x
 _atom_site_fract_y
 _atom_site_fract_z
 _atom_site_occupancy
  P  P0  1  0.13423002  0.49250572  0.79958578  1
  P  P1  1  0.63422910  0.00749463  0.20041423  1
  P  P2  1  0.86576993  0.99250576  0.70041419  1
  P  P3  1  0.36577093  0.50749462  0.29958580  1
  P  P4  1  0.00371211  0.49880615  0.93259849  1
  P  P5  1  0.50371112  0.00119407  0.06740135  1
  P  P6  1  -0.00371203  -0.00119384  0.56740149  1
  P  P7  1  0.49628887  0.50119406  0.43259866  1
  H  H8  1  0.84614130  0.34541780  0.72126855  1
  H  H9  1  0.34613964  0.15458185  0.27873185  1
  H  H10  1  0.15385864  0.84541778  0.77873140  1
  H  H11  1  0.65386040  0.65458180  0.22126816  1
  H  H12  1  0.43595160  0.24060185  0.08978115  1
  H  H13  1  0.93595583  0.25939820  0.91021867  1
  H  H14  1  0.56404867  0.74060187  0.41021884  1
  H  H15  1  0.06404391  0.75939825  0.58978137  1
  H  H16  1  0.65367026  0.62289747  0.88149921  1
  H  H17  1  0.15367079  0.87710104  0.11850071  1
  H  H18  1  0.34632978  0.12289738  0.61850077  1
  H  H19  1  0.84632906  0.37710094  0.38149937  1
  H  H20  1  0.42922828  0.34249201  0.85886277  1
  H  H21  1  -0.07077202  0.15750751  0.14113799  1
  H  H22  1  0.57077178  0.84249199  0.64113716  1
  H  H23  1  0.07077212  0.65750752  0.35886204  1
  Se  Se24  1  0.27932047  0.30830467  0.79386071  1
  Se  Se25  1  0.77931837  0.19169597  0.20613960  1
  Se  Se26  1  0.72067944  0.80830469  0.70613924  1
  Se  Se27  1  0.22068168  0.69169594  0.29386042  1
  Se  Se28  1  0.88583104  0.47666423  0.70498872  1
  Se  Se29  1  0.38583037  0.02333605  0.29501135  1
  Se  Se30  1  0.11416895  0.97666418  0.79501125  1
  Se  Se31  1  0.61416963  0.52333604  0.20498867  1
  Se  Se32  1  0.26098357  0.49459222  0.51996726  1
  Se  Se33  1  0.76098351  0.00541000  0.48003265  1
  Se  Se34  1  0.73901642  -0.00540791  0.98003277  1
  Se  Se35  1  0.23901663  0.50540986  0.01996731  1
  Se  Se36  1  0.71816639  0.65662535  0.44297174  1
  Se  Se37  1  0.21816222  0.84337397  0.55702779  1
  Se  Se38  1  0.28183373  0.15662542  0.05702826  1
  Se  Se39  1  0.78183760  0.34337404  -0.05702783  1
  Se  Se40  1  0.68461161  0.33401697  0.43910293  1
  Se  Se41  1  0.18461141  0.16598220  0.56089744  1
  Se  Se42  1  0.31538820  0.83401700  0.06089718  1
  Se  Se43  1  0.81538864  0.66598222  0.93910254  1
  Se  Se44  1  0.18157676  0.35494177  0.28052631  1
  Se  Se45  1  0.68157603  0.14505847  0.71947355  1
  Se  Se46  1  0.81842327  0.85494176  0.21947374  1
  Se  Se47  1  0.31842396  0.64505846  0.78052641  1
