# generated using pymatgen
data_PH3OF6
_symmetry_space_group_name_H-M   'P 1'
_cell_length_a   4.93023372
_cell_length_b   6.33845191
_cell_length_c   7.63125763
_cell_angle_alpha   86.79303282
_cell_angle_beta   83.45256454
_cell_angle_gamma   81.46337547
_symmetry_Int_Tables_number   1
_chemical_formula_structural   PH3OF6
_chemical_formula_sum   'P2 H6 O2 F12'
_cell_volume   234.11213705
_cell_formula_units_Z   2
loop_
 _symmetry_equiv_pos_site_id
 _symmetry_equiv_pos_as_xyz
  1  'x, y, z'
loop_
 _atom_site_type_symbol
 _atom_site_label
 _atom_site_symmetry_multiplicity
 _atom_site_fract_x
 _atom_site_fract_y
 _atom_site_fract_z
 _atom_site_occupancy
  P  P0  1  0.44147654  0.76660311  0.75974985  1
  P  P1  1  0.55852352  0.23339686  0.24025015  1
  H  H2  1  0.09898897  0.37405627  0.72954043  1
  H  H3  1  0.90101109  0.62594374  0.27045959  1
  H  H4  1  0.06293608  0.12579568  0.68917093  1
  H  H5  1  0.93706382  0.87420442  0.31082911  1
  H  H6  1  0.87492102  0.24994883  0.85543977  1
  H  H7  1  0.12507893  0.75005115  0.14456035  1
  O  O8  1  0.96709419  0.26824239  0.73265846  1
  O  O9  1  0.03290600  0.73175739  0.26734136  1
  F  F10  1  0.32437603  0.53805751  0.74109456  1
  F  F11  1  0.67562399  0.46194251  0.25890540  1
  F  F12  1  0.19491094  0.88746903  0.63961492  1
  F  F13  1  0.80508900  0.11253100  0.36038509  1
  F  F14  1  0.21335491  0.81242299  0.93740900  1
  F  F15  1  0.78664506  0.18757697  0.06259102  1
  F  F16  1  0.53979659  -0.00395066  0.77925135  1
  F  F17  1  0.46020335  0.00395070  0.22074867  1
  F  F18  1  0.66787919  0.64810758  0.88277975  1
  F  F19  1  0.33212080  0.35189244  0.11722024  1
  F  F20  1  0.64772205  0.72182557  0.58219683  1
  F  F21  1  0.35227792  0.27817449  0.41780318  1
