# generated using pymatgen
data_Rb3Al7S12
_symmetry_space_group_name_H-M   'P 1'
_cell_length_a   12.79399713
_cell_length_b   9.23059601
_cell_length_c   9.86412671
_cell_angle_alpha   84.29464622
_cell_angle_beta   89.99999976
_cell_angle_gamma   89.99999992
_symmetry_Int_Tables_number   1
_chemical_formula_structural   Rb3Al7S12
_chemical_formula_sum   'Rb6 Al14 S24'
_cell_volume   1159.14540425
_cell_formula_units_Z   2
loop_
 _symmetry_equiv_pos_site_id
 _symmetry_equiv_pos_as_xyz
  1  'x, y, z'
loop_
 _atom_site_type_symbol
 _atom_site_label
 _atom_site_symmetry_multiplicity
 _atom_site_fract_x
 _atom_site_fract_y
 _atom_site_fract_z
 _atom_site_occupancy
  Rb  Rb0  1  0.25545436  0.04718350  0.49072344  1
  Rb  Rb1  1  0.75545436  0.95281648  0.50927656  1
  Rb  Rb2  1  0.02106660  0.10925073  0.25019234  1
  Rb  Rb3  1  0.52106660  0.89074928  0.74980766  1
  Rb  Rb4  1  0.02992707  0.61404565  0.15701715  1
  Rb  Rb5  1  0.52992707  0.38595435  0.84298285  1
  Al  Al6  1  0.28311018  0.03139949  0.03202492  1
  Al  Al7  1  0.78311019  0.96860051  0.96797508  1
  Al  Al8  1  0.76290690  0.29525167  0.18364061  1
  Al  Al9  1  0.26290690  0.70474833  0.81635939  1
  Al  Al10  1  0.37156687  0.69936838  0.18358411  1
  Al  Al11  1  0.87156687  0.30063162  0.81641589  1
  Al  Al12  1  0.76873256  0.48263781  0.47151461  1
  Al  Al13  1  0.26873256  0.51736219  0.52848539  1
  Al  Al14  1  0.67050076  0.67437827  0.17485009  1
  Al  Al15  1  0.17050076  0.32562173  0.82514991  1
  Al  Al16  1  0.53775182  0.02369671  0.19691901  1
  Al  Al17  1  0.03775182  0.97630329  0.80308099  1
  Al  Al18  1  0.51897135  0.37554912  0.36090922  1
  Al  Al19  1  0.01897135  0.62445088  0.63909079  1
  S  S20  1  0.95533894  0.92593466  0.00020559  1
  S  S21  1  0.20133378  0.24467955  0.04240654  1
  S  S22  1  0.30409605  0.32103589  0.67825706  1
  S  S23  1  0.80409605  0.67896410  0.32174293  1
  S  S24  1  0.70133379  0.75532046  0.95759346  1
  S  S25  1  0.61255544  0.43540111  0.15999039  1
  S  S26  1  0.85176560  0.52137026  0.67802897  1
  S  S27  1  0.35176559  0.47862974  0.32197103  1
  S  S28  1  0.33325678  0.71838571  0.60817413  1
  S  S29  1  0.83325677  0.28161429  0.39182588  1
  S  S30  1  0.59912549  0.47134703  0.53109751  1
  S  S31  1  0.09912549  0.52865298  0.46890249  1
  S  S32  1  0.38746638  0.64002128  0.96907733  1
  S  S33  1  0.88746637  0.35997872  0.03092267  1
  S  S34  1  0.74567850  0.13510011  0.79000592  1
  S  S35  1  0.24567849  0.86489989  0.20999407  1
  S  S36  1  0.52714261  0.77986046  0.27175253  1
  S  S37  1  0.02714261  0.22013954  0.72824746  1
  S  S38  1  0.71683558  0.05629395  0.16513806  1
  S  S39  1  0.21683557  0.94370605  0.83486195  1
  S  S40  1  0.50237342  0.13004344  0.38848569  1
  S  S41  1  1.00237342  0.86995657  0.61151431  1
  S  S42  1  0.11255544  0.56459889  0.84000961  1
  S  S43  1  0.45533894  0.07406534  0.99979442  1
