# generated using pymatgen
data_Rb3SbS3
_symmetry_space_group_name_H-M   'P 1'
_cell_length_a   21.43882053
_cell_length_b   7.09089415
_cell_length_c   8.35231766
_cell_angle_alpha   64.50861830
_cell_angle_beta   90.00001280
_cell_angle_gamma   90.00002237
_symmetry_Int_Tables_number   1
_chemical_formula_structural   Rb3SbS3
_chemical_formula_sum   'Rb12 Sb4 S12'
_cell_volume   1146.11526122
_cell_formula_units_Z   4
loop_
 _symmetry_equiv_pos_site_id
 _symmetry_equiv_pos_as_xyz
  1  'x, y, z'
loop_
 _atom_site_type_symbol
 _atom_site_label
 _atom_site_symmetry_multiplicity
 _atom_site_fract_x
 _atom_site_fract_y
 _atom_site_fract_z
 _atom_site_occupancy
  Rb  Rb0  1  0.83585809  0.77505096  -0.04223188  1
  Rb  Rb1  1  0.72506515  0.28525414  0.38423280  1
  Rb  Rb2  1  0.33585803  0.72494930  1.04223213  1
  Rb  Rb3  1  0.93085524  0.36807427  0.70127543  1
  Rb  Rb4  1  0.22506511  0.21474592  0.61576692  1
  Rb  Rb5  1  0.56914489  0.86807392  0.70127499  1
  Rb  Rb6  1  0.16414192  0.22494907  1.04223194  1
  Rb  Rb7  1  0.27493485  0.71474589  0.61576710  1
  Rb  Rb8  1  0.06914476  0.63192572  0.29872465  1
  Rb  Rb9  1  0.43085511  0.13192609  0.29872493  1
  Rb  Rb10  1  0.66414198  0.27505068  -0.04223220  1
  Rb  Rb11  1  0.77493489  0.78525405  0.38423318  1
  Sb  Sb12  1  0.58875811  0.62809345  0.26464363  1
  Sb  Sb13  1  0.08875805  0.87190615  0.73535604  1
  Sb  Sb14  1  0.41124189  0.37190654  0.73535629  1
  Sb  Sb15  1  0.91124194  0.12809386  0.26464404  1
  S  S16  1  0.07802928  0.22687156  0.70973045  1
  S  S17  1  0.42197066  0.72687199  0.70973069  1
  S  S18  1  0.57802934  0.27312800  0.29026921  1
  S  S19  1  0.17694864  0.74857386  -0.05201783  1
  S  S20  1  0.64279907  0.56448508  0.54209681  1
  S  S21  1  0.14279909  0.93551433  0.45790303  1
  S  S22  1  0.92197072  0.77312845  0.29026965  1
  S  S23  1  0.35720092  0.43551487  0.45790313  1
  S  S24  1  0.85720090  0.06448571  0.54209702  1
  S  S25  1  0.67694873  0.75142592  1.05201765  1
  S  S26  1  0.32305127  0.24857408  -0.05201770  1
  S  S27  1  0.82305137  0.25142614  1.05201788  1
