# generated using pymatgen
data_Rb8GeS6
_symmetry_space_group_name_H-M   'P 1'
_cell_length_a   9.38037970
_cell_length_b   12.58010039
_cell_length_c   19.17180747
_cell_angle_alpha   89.99998790
_cell_angle_beta   89.99997874
_cell_angle_gamma   89.99995951
_symmetry_Int_Tables_number   1
_chemical_formula_structural   Rb8GeS6
_chemical_formula_sum   'Rb32 Ge4 S24'
_cell_volume   2262.39058076
_cell_formula_units_Z   4
loop_
 _symmetry_equiv_pos_site_id
 _symmetry_equiv_pos_as_xyz
  1  'x, y, z'
loop_
 _atom_site_type_symbol
 _atom_site_label
 _atom_site_symmetry_multiplicity
 _atom_site_fract_x
 _atom_site_fract_y
 _atom_site_fract_z
 _atom_site_occupancy
  Rb  Rb0  1  1.00645039  0.07522928  0.78584488  1
  Rb  Rb1  1  0.84482571  0.45470620  0.75990559  1
  Rb  Rb2  1  0.15517506  0.95470702  0.24009420  1
  Rb  Rb3  1  0.65517430  0.45470606  0.25990592  1
  Rb  Rb4  1  0.46667268  0.08350757  0.48641531  1
  Rb  Rb5  1  0.53332711  0.58350642  0.51358461  1
  Rb  Rb6  1  1.03332709  0.08350573  0.98641496  1
  Rb  Rb7  1  -0.03332734  0.58350635  0.01358488  1
  Rb  Rb8  1  0.88482108  0.20401166  0.24892021  1
  Rb  Rb9  1  0.11517871  0.70401207  0.75107945  1
  Rb  Rb10  1  0.61517829  0.20401244  0.74892046  1
  Rb  Rb11  1  0.38482083  0.70401174  0.25107994  1
  Rb  Rb12  1  0.64720437  0.14750171  0.06641902  1
  Rb  Rb13  1  0.35279528  0.64750059  0.93358079  1
  Rb  Rb14  1  0.85279596  0.14750252  0.56641910  1
  Rb  Rb15  1  0.14720415  0.64750270  0.43358112  1
  Rb  Rb16  1  -0.00645057  0.57523038  0.21415486  1
  Rb  Rb17  1  0.34482724  0.95470555  0.74009452  1
  Rb  Rb18  1  0.50645102  0.57523083  0.71415453  1
  Rb  Rb19  1  0.49354927  0.07523100  0.28584542  1
  Rb  Rb20  1  0.56592184  0.54722148  0.07934935  1
  Rb  Rb21  1  0.43407860  0.04722042  0.92065135  1
  Rb  Rb22  1  0.93407904  0.54722059  0.57934840  1
  Rb  Rb23  1  0.06592090  0.04722036  0.42065178  1
  Rb  Rb24  1  0.70023353  0.34479302  0.44389713  1
  Rb  Rb25  1  0.29976881  0.84479306  0.55610287  1
  Rb  Rb26  1  0.79976703  0.34479229  0.94389692  1
  Rb  Rb27  1  0.20023437  0.84479231  0.05610292  1
  Rb  Rb28  1  0.68109034  0.85498383  0.37551148  1
  Rb  Rb29  1  0.31890943  0.35498386  0.62448862  1
  Rb  Rb30  1  0.81890991  0.85498312  0.87551171  1
  Rb  Rb31  1  0.18109024  0.35498323  0.12448835  1
  Ge  Ge32  1  0.69542439  0.84957848  0.12770237  1
  Ge  Ge33  1  0.30457511  0.34957796  0.87229746  1
  Ge  Ge34  1  0.80457572  0.84957879  0.62770257  1
  Ge  Ge35  1  0.19542396  0.34957876  0.37229753  1
  S  S36  1  0.74198821  0.11051741  0.39362751  1
  S  S37  1  0.25801188  0.61051744  0.60637242  1
  S  S38  1  0.75801158  0.11051655  0.89362738  1
  S  S39  1  0.24198828  0.61051658  0.10637253  1
  S  S40  1  0.81843159  0.37441912  0.11737722  1
  S  S41  1  0.18156860  0.87441863  0.88262275  1
  S  S42  1  0.68156814  0.37441968  0.61737715  1
  S  S43  1  0.31843189  0.87441962  0.38262275  1
  S  S44  1  0.71645028  0.72728952  0.21456626  1
  S  S45  1  0.28354848  0.22728924  0.78543357  1
  S  S46  1  0.78354919  0.72729050  0.71456674  1
  S  S47  1  0.21645026  0.22729012  0.28543361  1
  S  S48  1  0.87871744  0.96845903  0.13573453  1
  S  S49  1  0.12128250  0.46845912  0.86426542  1
  S  S50  1  0.62128317  0.96846004  0.63573433  1
  S  S51  1  0.37871718  0.46845925  0.36426578  1
  S  S52  1  0.80134936  0.76828834  0.52333441  1
  S  S53  1  0.19864884  0.26828867  0.47666587  1
  S  S54  1  0.69864965  0.76828866  0.02333411  1
  S  S55  1  0.30134948  0.26828802  0.97666575  1
  S  S56  1  0.98494707  0.43939551  0.36002533  1
  S  S57  1  0.01505325  0.93939468  0.63997425  1
  S  S58  1  0.51505248  0.43939385  0.86002466  1
  S  S59  1  0.48494735  0.93939495  0.13997506  1
