# generated using pymatgen
data_RbAlSe2
_symmetry_space_group_name_H-M   'P 1'
_cell_length_a   7.86276968
_cell_length_b   7.86277123
_cell_length_c   16.30341109
_cell_angle_alpha   83.05630348
_cell_angle_beta   83.05629286
_cell_angle_gamma   89.99969754
_symmetry_Int_Tables_number   1
_chemical_formula_structural   RbAlSe2
_chemical_formula_sum   'Rb8 Al8 Se16'
_cell_volume   993.08796456
_cell_formula_units_Z   8
loop_
 _symmetry_equiv_pos_site_id
 _symmetry_equiv_pos_as_xyz
  1  'x, y, z'
loop_
 _atom_site_type_symbol
 _atom_site_label
 _atom_site_symmetry_multiplicity
 _atom_site_fract_x
 _atom_site_fract_y
 _atom_site_fract_z
 _atom_site_occupancy
  Rb  Rb0  1  0.65310431  0.77518545  0.89288175  1
  Rb  Rb1  1  0.22481475  0.34689582  0.60711799  1
  Rb  Rb2  1  0.34689579  0.22481462  0.10711823  1
  Rb  Rb3  1  0.77518552  0.65310425  0.39288165  1
  Rb  Rb4  1  0.22542092  0.84990843  0.60656476  1
  Rb  Rb5  1  0.15009153  0.77457890  0.89343542  1
  Rb  Rb6  1  0.77457896  0.15009150  0.39343542  1
  Rb  Rb7  1  0.84990851  0.22542101  0.10656462  1
  Al  Al8  1  0.42121181  0.29209516  0.83269036  1
  Al  Al9  1  0.70790475  0.57878809  0.66730966  1
  Al  Al10  1  0.57878813  0.70790480  0.16730970  1
  Al  Al11  1  0.29209524  0.42121187  0.33269034  1
  Al  Al12  1  0.70778991  0.08691191  0.66800278  1
  Al  Al13  1  0.91308811  0.29221003  0.83199727  1
  Al  Al14  1  0.29221007  0.91308814  0.33199723  1
  Al  Al15  1  0.08691194  0.70778997  0.16800275  1
  Se  Se16  1  0.64466306  0.27019203  0.92473894  1
  Se  Se17  1  0.72980791  0.35533695  0.57526104  1
  Se  Se18  1  0.35533694  0.72980801  0.07526108  1
  Se  Se19  1  0.27019198  0.64466310  0.42473895  1
  Se  Se20  1  0.43280071  0.05695230  0.75095359  1
  Se  Se21  1  0.94304773  0.56719928  0.74904636  1
  Se  Se22  1  0.56719925  0.94304776  0.24904643  1
  Se  Se23  1  0.05695229  0.43280066  0.25095360  1
  Se  Se24  1  0.43259393  0.56740606  0.74999996  1
  Se  Se25  1  0.56740601  0.43259391  0.25000005  1
  Se  Se26  1  0.94246489  0.05753517  0.74999999  1
  Se  Se27  1  0.05753514  0.94246491  0.24999999  1
  Se  Se28  1  0.72903168  0.85563672  0.57950638  1
  Se  Se29  1  0.14436327  0.27096834  0.92049365  1
  Se  Se30  1  0.27096825  0.14436322  0.42049364  1
  Se  Se31  1  0.85563671  0.72903167  0.07950643  1
