# generated using pymatgen
data_RbAlSiO4
_symmetry_space_group_name_H-M   'P 1'
_cell_length_a   9.33787044
_cell_length_b   9.33779782
_cell_length_c   9.33790911
_cell_angle_alpha   90.46372169
_cell_angle_beta   90.46390657
_cell_angle_gamma   90.46363376
_symmetry_Int_Tables_number   1
_chemical_formula_structural   RbAlSiO4
_chemical_formula_sum   'Rb6 Al6 Si6 O24'
_cell_volume   814.13990311
_cell_formula_units_Z   6
loop_
 _symmetry_equiv_pos_site_id
 _symmetry_equiv_pos_as_xyz
  1  'x, y, z'
loop_
 _atom_site_type_symbol
 _atom_site_label
 _atom_site_symmetry_multiplicity
 _atom_site_fract_x
 _atom_site_fract_y
 _atom_site_fract_z
 _atom_site_occupancy
  Rb  Rb0  1  0.33353598  0.67275453  0.32976770  1
  Rb  Rb1  1  0.67275378  0.32976804  0.33353503  1
  Rb  Rb2  1  0.32976861  0.33353532  0.67275487  1
  Rb  Rb3  1  0.17275521  0.83353634  0.82976829  1
  Rb  Rb4  1  0.82976744  0.17275404  0.83353633  1
  Rb  Rb5  1  0.83353547  0.82976811  0.17275409  1
  Al  Al6  1  0.50356621  0.75085099  0.99448646  1
  Al  Al7  1  0.99448636  0.50356725  0.75085081  1
  Al  Al8  1  0.75085055  0.99448644  0.50356706  1
  Al  Al9  1  0.00356736  0.49448642  0.25085066  1
  Al  Al10  1  0.25085102  0.00356664  0.49448614  1
  Al  Al11  1  0.49448628  0.25085087  0.00356644  1
  Si  Si12  1  0.00004438  0.74951259  0.50161881  1
  Si  Si13  1  0.50161853  0.00004337  0.74951570  1
  Si  Si14  1  0.74949599  0.50162604  0.00004842  1
  Si  Si15  1  0.50004158  0.00162791  0.24950031  1
  Si  Si16  1  0.24951978  0.50003849  0.00162387  1
  Si  Si17  1  0.00162748  0.24950452  0.50003946  1
  O  O18  1  0.65877921  0.64857473  0.98065867  1
  O  O19  1  0.98065800  0.65877015  0.64858565  1
  O  O20  1  0.64858503  0.98065793  0.65877043  1
  O  O21  1  0.34994249  0.64451929  0.02425638  1
  O  O22  1  0.02809521  0.64869792  0.35990695  1
  O  O23  1  0.35822722  0.96945848  0.34551157  1
  O  O24  1  0.64870195  0.35991114  0.02809488  1
  O  O25  1  0.96945875  0.34551033  0.35822855  1
  O  O26  1  0.64452372  0.02425659  0.34994706  1
  O  O27  1  0.34550461  0.35823516  0.96945937  1
  O  O28  1  0.02425640  0.34994749  0.64452477  1
  O  O29  1  0.35990746  0.02809512  0.64869792  1
  O  O30  1  0.14869343  0.52809555  0.85990229  1
  O  O31  1  0.46945909  0.85823210  0.84550733  1
  O  O32  1  0.14452001  0.84994323  0.52425627  1
  O  O33  1  0.84551607  0.46945806  0.85822190  1
  O  O34  1  0.52425638  0.14451790  0.84994157  1
  O  O35  1  0.85990546  0.14869698  0.52809536  1
  O  O36  1  0.15877147  0.48065804  0.14858387  1
  O  O37  1  0.48065858  0.14857419  0.15877956  1
  O  O38  1  0.14857737  0.15877702  0.48065849  1
  O  O39  1  0.84994588  0.52425636  0.14452229  1
  O  O40  1  0.52809511  0.85990853  0.14869947  1
  O  O41  1  0.85822908  0.84550981  0.46945896  1
