# generated using pymatgen
data_RbBi3S5
_symmetry_space_group_name_H-M   'P 1'
_cell_length_a   4.12650637
_cell_length_b   7.89171556
_cell_length_c   17.27480226
_cell_angle_alpha   101.22444246
_cell_angle_beta   89.99935458
_cell_angle_gamma   105.15760104
_symmetry_Int_Tables_number   1
_chemical_formula_structural   RbBi3S5
_chemical_formula_sum   'Rb2 Bi6 S10'
_cell_volume   531.83041997
_cell_formula_units_Z   2
loop_
 _symmetry_equiv_pos_site_id
 _symmetry_equiv_pos_as_xyz
  1  'x, y, z'
loop_
 _atom_site_type_symbol
 _atom_site_label
 _atom_site_symmetry_multiplicity
 _atom_site_fract_x
 _atom_site_fract_y
 _atom_site_fract_z
 _atom_site_occupancy
  Rb  Rb0  1  0.49999997  -0.00000002  0.49999997  1
  Rb  Rb1  1  -0.00000013  0.00000001  -0.00000000  1
  Bi  Bi2  1  0.78430411  0.56863204  0.60654132  1
  Bi  Bi3  1  0.21569561  0.43136795  0.39345870  1
  Bi  Bi4  1  0.48372428  -0.03268014  0.79571821  1
  Bi  Bi5  1  0.51627658  0.03268016  0.20428175  1
  Bi  Bi6  1  0.23975809  0.47945320  0.88804148  1
  Bi  Bi7  1  0.76024237  0.52054680  0.11195852  1
  S  S8  1  0.16662973  0.33325542  0.52950217  1
  S  S9  1  0.83337021  0.66674453  0.47049787  1
  S  S10  1  0.40750645  0.81501213  0.64675630  1
  S  S11  1  0.59249350  0.18498791  0.35324372  1
  S  S12  1  0.08847784  0.17690808  0.76092199  1
  S  S13  1  0.91152203  0.82309189  0.23907802  1
  S  S14  1  0.84563804  0.69129998  0.82813027  1
  S  S15  1  0.15436083  0.30870003  0.17186970  1
  S  S16  1  0.35011021  0.70020444  0.04792628  1
  S  S17  1  0.64988930  0.29979561  0.95207372  1
