# generated using pymatgen
data_RbHg2AsO4
_symmetry_space_group_name_H-M   'P 1'
_cell_length_a   6.29784035
_cell_length_b   9.44626389
_cell_length_c   11.21885104
_cell_angle_alpha   90.00017667
_cell_angle_beta   89.99988269
_cell_angle_gamma   89.99754859
_symmetry_Int_Tables_number   1
_chemical_formula_structural   RbHg2AsO4
_chemical_formula_sum   'Rb4 Hg8 As4 O16'
_cell_volume   667.42136117
_cell_formula_units_Z   4
loop_
 _symmetry_equiv_pos_site_id
 _symmetry_equiv_pos_as_xyz
  1  'x, y, z'
loop_
 _atom_site_type_symbol
 _atom_site_label
 _atom_site_symmetry_multiplicity
 _atom_site_fract_x
 _atom_site_fract_y
 _atom_site_fract_z
 _atom_site_occupancy
  Rb  Rb0  1  0.50000303  0.06252042  0.83066209  1
  Rb  Rb1  1  0.49999661  0.43748379  0.33066027  1
  Rb  Rb2  1  0.50000316  0.56251770  0.66934083  1
  Rb  Rb3  1  0.49999671  0.93748017  0.16933749  1
  Hg  Hg4  1  0.28950243  0.79052191  0.43444438  1
  Hg  Hg5  1  0.71049853  0.20947855  0.56555756  1
  Hg  Hg6  1  0.28949511  0.29052130  0.06555380  1
  Hg  Hg7  1  0.28950039  0.20947897  0.56555762  1
  Hg  Hg8  1  0.71050578  0.29052131  0.06555451  1
  Hg  Hg9  1  0.71051020  0.70947739  0.93444588  1
  Hg  Hg10  1  0.28948860  0.70947729  0.93444537  1
  Hg  Hg11  1  0.71049886  0.79052148  0.43444441  1
  As  As12  1  -0.00001851  0.88412099  0.67581437  1
  As  As13  1  -0.00001878  0.38411176  0.82417210  1
  As  As14  1  0.00001824  0.11587851  0.32418500  1
  As  As15  1  0.00001875  0.61585278  0.17581750  1
  O  O16  1  -0.00000437  0.74617821  0.06189888  1
  O  O17  1  0.23116592  0.52359050  0.15836833  1
  O  O18  1  0.00000042  0.79898756  0.81298494  1
  O  O19  1  -0.00000014  0.29901278  0.68703219  1
  O  O20  1  0.00000398  0.25382720  0.93809648  1
  O  O21  1  0.23121240  0.47642659  0.84163054  1
  O  O22  1  -0.00000056  0.20100676  0.18702232  1
  O  O23  1  0.23118990  0.02357186  0.34162609  1
  O  O24  1  0.00000088  0.70099187  0.31297662  1
  O  O25  1  0.23122330  -0.02356496  0.65837439  1
  O  O26  1  0.76879832  -0.02356781  0.65837343  1
  O  O27  1  -0.00000286  0.24615920  0.43809652  1
  O  O28  1  0.76881520  0.52358671  0.15837104  1
  O  O29  1  0.00000289  0.75383599  0.56189939  1
  O  O30  1  0.76880741  0.47642397  0.84163168  1
  O  O31  1  0.76878821  0.02356924  0.34162501  1
