# generated using pymatgen
data_RbIO3
_symmetry_space_group_name_H-M   'P 1'
_cell_length_a   6.50008166
_cell_length_b   7.70556322
_cell_length_c   16.44017975
_cell_angle_alpha   89.99999575
_cell_angle_beta   89.99999501
_cell_angle_gamma   90.00000958
_symmetry_Int_Tables_number   1
_chemical_formula_structural   RbIO3
_chemical_formula_sum   'Rb8 I8 O24'
_cell_volume   823.43583343
_cell_formula_units_Z   8
loop_
 _symmetry_equiv_pos_site_id
 _symmetry_equiv_pos_as_xyz
  1  'x, y, z'
loop_
 _atom_site_type_symbol
 _atom_site_label
 _atom_site_symmetry_multiplicity
 _atom_site_fract_x
 _atom_site_fract_y
 _atom_site_fract_z
 _atom_site_occupancy
  Rb  Rb0  1  0.00291788  0.60718954  0.69635397  1
  Rb  Rb1  1  0.50291792  0.39281056  0.30364602  1
  Rb  Rb2  1  0.00291783  0.39281047  0.19635404  1
  Rb  Rb3  1  0.50291787  0.60718942  0.80364593  1
  Rb  Rb4  1  0.98678024  0.11541034  0.70109961  1
  Rb  Rb5  1  0.48678029  0.88458964  0.29890042  1
  Rb  Rb6  1  0.98678031  0.88458960  0.20109969  1
  Rb  Rb7  1  0.48678035  0.11541038  0.79890033  1
  I  I8  1  0.60179878  0.86254430  0.57646853  1
  I  I9  1  0.10179880  0.13745587  0.42353142  1
  I  I10  1  0.60179891  0.13745582  0.07646861  1
  I  I11  1  0.10179887  0.86254429  0.92353134  1
  I  I12  1  0.51293552  0.35564492  0.58736950  1
  I  I13  1  0.01293549  0.64435493  0.41263052  1
  I  I14  1  0.51293553  0.64435497  0.08736960  1
  I  I15  1  0.01293553  0.35564491  0.91263044  1
  O  O16  1  0.17883137  0.36884565  0.82204265  1
  O  O17  1  0.67883161  0.63115434  0.17795729  1
  O  O18  1  0.17883151  0.63115430  0.32204279  1
  O  O19  1  0.67883179  0.36884576  0.67795714  1
  O  O20  1  0.14262836  0.85903552  0.81298546  1
  O  O21  1  0.64262833  0.14096448  0.18701449  1
  O  O22  1  0.14262829  0.14096439  0.31298554  1
  O  O23  1  0.64262831  0.85903553  0.68701440  1
  O  O24  1  0.25865606  0.05170223  0.95012139  1
  O  O25  1  0.75865611  0.94829770  0.04987855  1
  O  O26  1  0.25865591  0.94829771  0.45012151  1
  O  O27  1  0.75865582  0.05170231  0.54987839  1
  O  O28  1  0.84774992  0.17921643  0.87690351  1
  O  O29  1  0.34774996  0.82078354  0.12309668  1
  O  O30  1  0.84774987  0.82078349  0.37690347  1
  O  O31  1  0.34775002  0.17921659  0.62309671  1
  O  O32  1  0.35247668  0.54702170  0.60648495  1
  O  O33  1  0.85247665  0.45297833  0.39351511  1
  O  O34  1  0.35247664  0.45297842  0.10648503  1
  O  O35  1  0.85247659  0.54702164  0.89351501  1
  O  O36  1  0.77882605  0.68664474  0.54852870  1
  O  O37  1  0.27882604  0.31335523  0.45147126  1
  O  O38  1  0.77882597  0.31335530  0.04852873  1
  O  O39  1  0.27882605  0.68664471  0.95147126  1
