# generated using pymatgen
data_RbPF6
_symmetry_space_group_name_H-M   'P 1'
_cell_length_a   6.13643816
_cell_length_b   6.13643832
_cell_length_c   6.13643760
_cell_angle_alpha   59.99994772
_cell_angle_beta   59.99994380
_cell_angle_gamma   59.99994867
_symmetry_Int_Tables_number   1
_chemical_formula_structural   RbPF6
_chemical_formula_sum   'Rb1 P1 F6'
_cell_volume   163.39303326
_cell_formula_units_Z   1
loop_
 _symmetry_equiv_pos_site_id
 _symmetry_equiv_pos_as_xyz
  1  'x, y, z'
loop_
 _atom_site_type_symbol
 _atom_site_label
 _atom_site_symmetry_multiplicity
 _atom_site_fract_x
 _atom_site_fract_y
 _atom_site_fract_z
 _atom_site_occupancy
  Rb  Rb0  1  0.49999998  0.49999998  0.50000000  1
  P  P1  1  0.00000000  0.00000000  -0.00000001  1
  F  F2  1  0.18826788  0.18826784  0.81173228  1
  F  F3  1  0.18826786  0.81173232  0.18826789  1
  F  F4  1  0.18826775  0.81173215  0.81173207  1
  F  F5  1  0.81173226  0.18826786  0.18826792  1
  F  F6  1  0.81173215  0.18826768  0.81173212  1
  F  F7  1  0.81173211  0.81173217  0.18826772  1
