# generated using pymatgen
data_ReAsF12
_symmetry_space_group_name_H-M   'P 1'
_cell_length_a   9.45586734
_cell_length_b   9.45586674
_cell_length_c   9.45586684
_cell_angle_alpha   89.99999097
_cell_angle_beta   89.99997879
_cell_angle_gamma   90.00001648
_symmetry_Int_Tables_number   1
_chemical_formula_structural   ReAsF12
_chemical_formula_sum   'Re4 As4 F48'
_cell_volume   845.48140721
_cell_formula_units_Z   4
loop_
 _symmetry_equiv_pos_site_id
 _symmetry_equiv_pos_as_xyz
  1  'x, y, z'
loop_
 _atom_site_type_symbol
 _atom_site_label
 _atom_site_symmetry_multiplicity
 _atom_site_fract_x
 _atom_site_fract_y
 _atom_site_fract_z
 _atom_site_occupancy
  Re  Re0  1  -0.00000029  -0.00000122  -0.00000025  1
  Re  Re1  1  0.50000009  -0.00000045  0.50000056  1
  Re  Re2  1  0.50000023  0.50000032  -0.00000041  1
  Re  Re3  1  -0.00000094  0.50000011  0.49999942  1
  As  As4  1  -0.00000015  -0.00000010  0.50000000  1
  As  As5  1  -0.00000019  0.50000018  0.00000005  1
  As  As6  1  0.50000009  -0.00000021  -0.00000015  1
  As  As7  1  0.50000025  0.50000005  0.50000004  1
  F  F8  1  0.88186525  0.63913007  0.56350615  1
  F  F9  1  0.43967100  0.60440573  0.64400672  1
  F  F10  1  0.89559429  0.35599324  0.93967114  1
  F  F11  1  0.11813578  0.13913126  0.93649338  1
  F  F12  1  0.36086973  0.43649373  0.11813502  1
  F  F13  1  0.38186459  0.86086929  0.43649355  1
  F  F14  1  0.35599329  0.93967108  0.89559422  1
  F  F15  1  0.06032891  0.39559421  0.14400664  1
  F  F16  1  0.36086931  0.06350636  0.61813525  1
  F  F17  1  0.88186514  0.86086989  0.06350612  1
  F  F18  1  0.06032894  0.10440570  0.64400667  1
  F  F19  1  0.56032884  0.39559420  0.35599323  1
  F  F20  1  0.86086914  0.06350653  0.88186452  1
  F  F21  1  0.43649340  0.11813566  0.36086888  1
  F  F22  1  0.14400674  0.43967105  0.89559423  1
  F  F23  1  0.63912967  0.56350587  0.88186545  1
  F  F24  1  0.63913071  0.93649361  0.38186447  1
  F  F25  1  0.64400665  0.06032893  0.10440582  1
  F  F26  1  0.61813495  0.36086965  0.06350628  1
  F  F27  1  0.85599332  0.93967111  0.60440570  1
  F  F28  1  0.93649347  0.11813586  0.13913118  1
  F  F29  1  0.06350613  0.61813474  0.36086994  1
  F  F30  1  0.10440574  0.64400661  0.06032890  1
  F  F31  1  0.56032885  0.10440574  0.85599334  1
  F  F32  1  0.64400660  0.43967104  0.60440576  1
  F  F33  1  0.13913096  0.56350645  0.61813555  1
  F  F34  1  0.39559420  0.14400672  0.06032898  1
  F  F35  1  0.14400670  0.06032888  0.39559425  1
  F  F36  1  0.06350629  0.88186493  0.86086953  1
  F  F37  1  0.43967110  0.89559424  0.14400669  1
  F  F38  1  0.13913081  0.93649376  0.11813538  1
  F  F39  1  0.38186510  0.63913003  0.93649389  1
  F  F40  1  0.85599329  0.56032883  0.10440569  1
  F  F41  1  0.89559422  0.14400665  0.43967108  1
  F  F42  1  0.86087048  0.43649412  0.38186566  1
  F  F43  1  0.60440561  0.64400656  0.43967111  1
  F  F44  1  0.60440568  0.85599331  0.93967107  1
  F  F45  1  0.11813508  0.36086960  0.43649387  1
  F  F46  1  0.56350609  0.61813480  0.13913007  1
  F  F47  1  0.43649383  0.38186514  0.86087004  1
  F  F48  1  0.35599323  0.56032887  0.39559420  1
  F  F49  1  0.93967115  0.60440563  0.85599332  1
  F  F50  1  0.61813530  0.13913075  0.56350626  1
  F  F51  1  0.93649406  0.38186524  0.63913007  1
  F  F52  1  0.93967107  0.89559428  0.35599332  1
  F  F53  1  0.39559425  0.35599330  0.56032886  1
  F  F54  1  0.10440577  0.85599324  0.56032887  1
  F  F55  1  0.56350620  0.88186482  0.63913044  1
