# generated using pymatgen
data_Sb2PbO4
_symmetry_space_group_name_H-M   'P 1'
_cell_length_a   12.58596372
_cell_length_b   6.25273614
_cell_length_c   7.53811895
_cell_angle_alpha   69.05777827
_cell_angle_beta   89.99999439
_cell_angle_gamma   89.99999594
_symmetry_Int_Tables_number   1
_chemical_formula_structural   Sb2PbO4
_chemical_formula_sum   'Sb8 Pb4 O16'
_cell_volume   554.03750184
_cell_formula_units_Z   4
loop_
 _symmetry_equiv_pos_site_id
 _symmetry_equiv_pos_as_xyz
  1  'x, y, z'
loop_
 _atom_site_type_symbol
 _atom_site_label
 _atom_site_symmetry_multiplicity
 _atom_site_fract_x
 _atom_site_fract_y
 _atom_site_fract_z
 _atom_site_occupancy
  Sb  Sb0  1  0.91829928  0.27382377  0.26330315  1
  Sb  Sb1  1  0.41829926  0.22617611  0.73669694  1
  Sb  Sb2  1  0.08170073  0.72617626  0.73669683  1
  Sb  Sb3  1  0.58170075  0.77382386  0.26330308  1
  Sb  Sb4  1  0.85388615  0.49914764  0.61434893  1
  Sb  Sb5  1  0.35388611  0.00085238  0.38565111  1
  Sb  Sb6  1  0.14611384  0.50085239  0.38565105  1
  Sb  Sb7  1  0.64611387  -0.00085244  0.61434889  1
  Pb  Pb8  1  0.65891348  0.39177085  0.00047030  1
  Pb  Pb9  1  0.15891344  0.10822921  0.99952970  1
  Pb  Pb10  1  0.34108652  0.60822916  0.99952969  1
  Pb  Pb11  1  0.84108655  0.89177084  0.00047029  1
  O  O12  1  0.91287849  0.24321992  0.53632959  1
  O  O13  1  0.41287836  0.25678012  0.46367046  1
  O  O14  1  0.08712150  0.75678013  0.46367038  1
  O  O15  1  0.58712168  0.74321976  0.53632959  1
  O  O16  1  0.97222558  0.47471350  0.80192179  1
  O  O17  1  0.47222563  0.02528665  0.19807834  1
  O  O18  1  0.02777439  0.52528657  0.19807817  1
  O  O19  1  0.52777438  0.97471331  0.80192172  1
  O  O20  1  0.79528352  0.47916632  0.17564323  1
  O  O21  1  0.29528358  0.02083366  0.82435686  1
  O  O22  1  0.20471645  0.52083367  0.82435677  1
  O  O23  1  0.70471642  -0.02083366  0.17564315  1
  O  O24  1  0.73532376  0.77432737  0.80597274  1
  O  O25  1  0.23532369  0.72567270  0.19402726  1
  O  O26  1  0.26467624  0.22567263  0.19402727  1
  O  O27  1  0.76467632  0.27432734  0.80597272  1
