# generated using pymatgen
data_Sb2Pb3O8
_symmetry_space_group_name_H-M   'P 1'
_cell_length_a   6.71450445
_cell_length_b   7.66383092
_cell_length_c   10.04100158
_cell_angle_alpha   64.19458752
_cell_angle_beta   89.99999031
_cell_angle_gamma   89.99998954
_symmetry_Int_Tables_number   1
_chemical_formula_structural   Sb2Pb3O8
_chemical_formula_sum   'Sb4 Pb6 O16'
_cell_volume   465.17180833
_cell_formula_units_Z   2
loop_
 _symmetry_equiv_pos_site_id
 _symmetry_equiv_pos_as_xyz
  1  'x, y, z'
loop_
 _atom_site_type_symbol
 _atom_site_label
 _atom_site_symmetry_multiplicity
 _atom_site_fract_x
 _atom_site_fract_y
 _atom_site_fract_z
 _atom_site_occupancy
  Sb  Sb0  1  0.02442312  0.80397195  0.40484748  1
  Sb  Sb1  1  0.52442306  0.19602833  0.09515251  1
  Sb  Sb2  1  0.97557677  0.19602802  0.59515261  1
  Sb  Sb3  1  0.47557705  0.80397175  0.90484755  1
  Pb  Pb4  1  -0.00000003  0.00000003  -0.00000005  1
  Pb  Pb5  1  0.50000003  0.00000009  0.49999997  1
  Pb  Pb6  1  0.89524873  0.61375552  0.78871217  1
  Pb  Pb7  1  0.39524840  0.38624464  0.71128763  1
  Pb  Pb8  1  0.10475133  0.38624451  0.21128790  1
  Pb  Pb9  1  0.60475150  0.61375531  0.28871239  1
  O  O10  1  0.25398604  0.72957179  0.52821824  1
  O  O11  1  0.75398557  0.27042807  0.97178217  1
  O  O12  1  0.74601314  0.27042846  0.47178132  1
  O  O13  1  0.24601475  0.72957201  0.02821765  1
  O  O14  1  0.69560765  0.76962619  0.03732775  1
  O  O15  1  0.19560930  0.23037406  0.46267118  1
  O  O16  1  0.30439195  0.23037385  0.96267199  1
  O  O17  1  0.80439148  0.76962607  0.53732831  1
  O  O18  1  0.04208879  0.34675541  0.70022934  1
  O  O19  1  0.54208829  0.65324561  0.79977137  1
  O  O20  1  0.95791147  0.65324517  0.29977099  1
  O  O21  1  0.45791159  0.34675456  0.20022874  1
  O  O22  1  0.04977169  0.05540724  0.24507516  1
  O  O23  1  0.54977154  0.94459325  0.25492454  1
  O  O24  1  0.95022824  0.94459179  0.75492539  1
  O  O25  1  0.45022853  0.05540632  0.74507570  1
