# generated using pymatgen
data_SbBrOF8
_symmetry_space_group_name_H-M   'P 1'
_cell_length_a   9.07411887
_cell_length_b   9.08452052
_cell_length_c   9.09872998
_cell_angle_alpha   89.69077560
_cell_angle_beta   89.99999937
_cell_angle_gamma   89.99998605
_symmetry_Int_Tables_number   1
_chemical_formula_structural   SbBrOF8
_chemical_formula_sum   'Sb4 Br4 O4 F32'
_cell_volume   750.03395750
_cell_formula_units_Z   4
loop_
 _symmetry_equiv_pos_site_id
 _symmetry_equiv_pos_as_xyz
  1  'x, y, z'
loop_
 _atom_site_type_symbol
 _atom_site_label
 _atom_site_symmetry_multiplicity
 _atom_site_fract_x
 _atom_site_fract_y
 _atom_site_fract_z
 _atom_site_occupancy
  Sb  Sb0  1  0.64394315  0.89405336  0.64283375  1
  Sb  Sb1  1  0.85932085  0.60993750  0.14052964  1
  Sb  Sb2  1  0.35932089  0.39006246  0.85947057  1
  Sb  Sb3  1  0.14394305  0.10594670  0.35716616  1
  Br  Br4  1  0.77248499  0.45851265  0.69680466  1
  Br  Br5  1  0.19735698  0.97530153  0.79394941  1
  Br  Br6  1  0.69735750  0.02469885  0.20605065  1
  Br  Br7  1  0.27248547  0.54148693  0.30319440  1
  O  O8  1  0.71047756  0.38662883  0.55138197  1
  O  O9  1  0.05226421  0.03967183  0.86548504  1
  O  O10  1  0.55226355  0.96032774  0.13451463  1
  O  O11  1  0.21047737  0.61337169  0.44861897  1
  F  F12  1  0.64620791  0.67852200  0.62671495  1
  F  F13  1  0.87222284  0.61130256  0.92918882  1
  F  F14  1  0.57550298  0.37434895  0.85433502  1
  F  F15  1  0.35632603  0.17354449  0.86840048  1
  F  F16  1  0.13171852  0.10310820  0.57271163  1
  F  F17  1  0.43191068  0.88130227  0.64448977  1
  F  F18  1  0.85632599  0.82645541  0.13159949  1
  F  F19  1  0.63171849  0.89689176  0.42728835  1
  F  F20  1  0.93191074  0.11869767  0.35551020  1
  F  F21  1  0.14620795  0.32147808  0.37328508  1
  F  F22  1  0.37222274  0.38869734  0.07081128  1
  F  F23  1  0.07550296  0.62565112  0.14566515  1
  F  F24  1  0.63358334  0.10244668  0.64616392  1
  F  F25  1  0.85813418  0.62432726  0.34876099  1
  F  F26  1  0.15067811  0.39330212  0.86996313  1
  F  F27  1  0.37771879  0.59789379  0.85400035  1
  F  F28  1  0.15096868  0.12373662  0.14949547  1
  F  F29  1  0.85229659  0.89405351  0.62553711  1
  F  F30  1  0.87771879  0.40210623  0.14599984  1
  F  F31  1  0.65096869  0.87626345  0.85050452  1
  F  F32  1  0.35229660  0.10594651  0.37446283  1
  F  F33  1  0.13358332  0.89755327  0.35383597  1
  F  F34  1  0.35813431  0.37567286  0.65123911  1
  F  F35  1  0.65067812  0.60669780  0.13003686  1
  F  F36  1  0.94305495  0.53593138  0.63813386  1
  F  F37  1  0.86454790  0.30866501  0.78358587  1
  F  F38  1  0.28257778  0.88334635  0.94474867  1
  F  F39  1  0.13670194  0.80513648  0.71890448  1
  F  F40  1  0.78257785  0.11665356  0.05525118  1
  F  F41  1  0.63670196  0.19486350  0.28109536  1
  F  F42  1  0.44305481  0.46406881  0.36186620  1
  F  F43  1  0.36454790  0.69133492  0.21641424  1
