# generated using pymatgen
data_SbCl2F3
_symmetry_space_group_name_H-M   'P 1'
_cell_length_a   9.10187329
_cell_length_b   9.10187538
_cell_length_c   6.57939326
_cell_angle_alpha   90.00002073
_cell_angle_beta   90.00004241
_cell_angle_gamma   89.99999484
_symmetry_Int_Tables_number   1
_chemical_formula_structural   SbCl2F3
_chemical_formula_sum   'Sb4 Cl8 F12'
_cell_volume   545.06402114
_cell_formula_units_Z   4
loop_
 _symmetry_equiv_pos_site_id
 _symmetry_equiv_pos_as_xyz
  1  'x, y, z'
loop_
 _atom_site_type_symbol
 _atom_site_label
 _atom_site_symmetry_multiplicity
 _atom_site_fract_x
 _atom_site_fract_y
 _atom_site_fract_z
 _atom_site_occupancy
  Sb  Sb0  1  0.49999996  -0.00000001  0.70355027  1
  Sb  Sb1  1  0.00000013  0.50000039  0.29644951  1
  Sb  Sb2  1  0.50000009  0.50000010  0.00000005  1
  Sb  Sb3  1  -0.00000004  -0.00000015  0.00000019  1
  Cl  Cl4  1  0.45914850  0.69543697  0.20574962  1
  Cl  Cl5  1  0.19543688  0.04085160  0.20574990  1
  Cl  Cl6  1  0.69543679  0.54085160  0.79425023  1
  Cl  Cl7  1  0.04085148  0.80456305  0.79425043  1
  Cl  Cl8  1  0.95914830  0.19543678  0.79425036  1
  Cl  Cl9  1  0.30456305  0.45914834  0.79425022  1
  Cl  Cl10  1  0.54085169  0.30456326  0.20574973  1
  Cl  Cl11  1  0.80456318  0.95914842  0.20574992  1
  F  F12  1  0.50000001  -0.00000037  0.41189979  1
  F  F13  1  0.00000003  0.50000032  0.58810019  1
  F  F14  1  0.44626824  0.79514566  0.70268195  1
  F  F15  1  0.29514572  0.05373151  0.70268157  1
  F  F16  1  0.70485418  0.94626816  0.70268226  1
  F  F17  1  0.55373159  0.20485402  0.70268174  1
  F  F18  1  0.05373176  0.70485413  0.29731789  1
  F  F19  1  0.20485426  0.44626848  0.29731831  1
  F  F20  1  0.79514587  0.55373185  0.29731780  1
  F  F21  1  0.00000011  0.49999978  0.00699339  1
  F  F22  1  0.49999988  0.00000023  -0.00699342  1
  F  F23  1  0.94626833  0.29514588  0.29731811  1
