# generated using pymatgen
data_SbClOF8
_symmetry_space_group_name_H-M   'P 1'
_cell_length_a   5.42057675
_cell_length_b   8.52608528
_cell_length_c   15.43066036
_cell_angle_alpha   90.00006597
_cell_angle_beta   89.99997202
_cell_angle_gamma   89.99999815
_symmetry_Int_Tables_number   1
_chemical_formula_structural   SbClOF8
_chemical_formula_sum   'Sb4 Cl4 O4 F32'
_cell_volume   713.14802280
_cell_formula_units_Z   4
loop_
 _symmetry_equiv_pos_site_id
 _symmetry_equiv_pos_as_xyz
  1  'x, y, z'
loop_
 _atom_site_type_symbol
 _atom_site_label
 _atom_site_symmetry_multiplicity
 _atom_site_fract_x
 _atom_site_fract_y
 _atom_site_fract_z
 _atom_site_occupancy
  Sb  Sb0  1  0.39090644  0.94138160  0.40189295  1
  Sb  Sb1  1  0.60909250  0.44138100  0.59810735  1
  Sb  Sb2  1  0.89090762  0.44138107  0.09810721  1
  Sb  Sb3  1  0.10909350  0.94138162  0.90189299  1
  Cl  Cl4  1  0.14022460  0.49137924  0.38957117  1
  Cl  Cl5  1  0.85976060  0.99137712  0.61043166  1
  Cl  Cl6  1  0.64023838  0.99137711  0.11043133  1
  Cl  Cl7  1  0.35977543  0.49137911  0.88957124  1
  O  O8  1  0.35390255  0.47520336  0.33950222  1
  O  O9  1  0.64610119  0.97520345  0.66049358  1
  O  O10  1  0.85389893  0.97520326  0.16049384  1
  O  O11  1  0.14609753  0.47520333  0.83950233  1
  F  F12  1  0.10856202  0.97603310  0.33122679  1
  F  F13  1  0.89143742  0.47603135  0.66877321  1
  F  F14  1  0.60856253  0.47603161  0.16877307  1
  F  F15  1  0.39143797  0.97603332  0.83122703  1
  F  F16  1  0.55272567  0.82930368  0.31128059  1
  F  F17  1  0.44727200  0.32930252  0.68871944  1
  F  F18  1  0.05272796  0.32930272  0.18871948  1
  F  F19  1  0.94727441  0.82930390  0.81128056  1
  F  F20  1  0.53459033  0.13603086  0.36877518  1
  F  F21  1  0.46540724  0.63603011  0.63122497  1
  F  F22  1  0.03459288  0.63603027  0.13122477  1
  F  F23  1  0.96540967  0.13603091  0.86877547  1
  F  F24  1  0.24899990  0.74270450  0.44149849  1
  F  F25  1  0.75100027  0.24270503  0.55850130  1
  F  F26  1  0.74899980  0.24270497  0.05850131  1
  F  F27  1  0.25099992  0.74270455  0.94149854  1
  F  F28  1  0.23135187  0.03789375  0.49979626  1
  F  F29  1  0.76864791  0.53789265  0.50020430  1
  F  F30  1  0.73135235  0.53789260  0.00020415  1
  F  F31  1  0.26864785  0.03789366  -0.00020352  1
  F  F32  1  0.66920003  0.89750733  0.47789284  1
  F  F33  1  0.33080169  0.39750778  0.52210658  1
  F  F34  1  0.16919851  0.39750767  0.02210660  1
  F  F35  1  0.83079987  0.89750722  0.97789286  1
  F  F36  1  0.93666835  0.58009206  0.32806154  1
  F  F37  1  0.06333097  0.08009094  0.67193964  1
  F  F38  1  0.43666915  0.08009070  0.17193950  1
  F  F39  1  0.56333200  0.58009200  0.82806165  1
  F  F40  1  0.99791588  0.32243085  0.38369243  1
  F  F41  1  0.00208329  0.82242902  0.61630730  1
  F  F42  1  0.49791679  0.82242903  0.11630724  1
  F  F43  1  0.50208424  0.32243073  0.88369257  1
