# generated using pymatgen
data_SbH18N3O7
_symmetry_space_group_name_H-M   'P 1'
_cell_length_a   6.53120995
_cell_length_b   6.87094742
_cell_length_c   23.47510231
_cell_angle_alpha   86.01194576
_cell_angle_beta   90.00000016
_cell_angle_gamma   89.99999898
_symmetry_Int_Tables_number   1
_chemical_formula_structural   SbH18N3O7
_chemical_formula_sum   'Sb4 H72 N12 O28'
_cell_volume   1050.90842864
_cell_formula_units_Z   4
loop_
 _symmetry_equiv_pos_site_id
 _symmetry_equiv_pos_as_xyz
  1  'x, y, z'
loop_
 _atom_site_type_symbol
 _atom_site_label
 _atom_site_symmetry_multiplicity
 _atom_site_fract_x
 _atom_site_fract_y
 _atom_site_fract_z
 _atom_site_occupancy
  Sb  Sb0  1  0.86095265  0.79650752  0.84415456  1
  Sb  Sb1  1  0.36095266  0.20349248  0.65584546  1
  Sb  Sb2  1  0.13904735  0.20349248  0.15584544  1
  Sb  Sb3  1  0.63904734  0.79650753  0.34415454  1
  H  H4  1  0.88713376  0.73909345  0.63827560  1
  H  H5  1  0.38713375  0.26090653  0.86172440  1
  H  H6  1  0.11286624  0.26090654  0.36172440  1
  H  H7  1  0.61286624  0.73909348  0.13827560  1
  H  H8  1  0.95564679  0.97501490  0.65430689  1
  H  H9  1  0.45564678  0.02498508  0.84569310  1
  H  H10  1  0.04435322  0.02498509  0.34569311  1
  H  H11  1  0.54435323  0.97501493  0.15430690  1
  H  H12  1  0.89469041  0.21068902  0.78295056  1
  H  H13  1  0.39469042  0.78931097  0.71704944  1
  H  H14  1  0.10530959  0.78931097  0.21704944  1
  H  H15  1  0.60530959  0.21068904  0.28295056  1
  H  H16  1  0.95005124  0.27864942  0.71251104  1
  H  H17  1  0.45005126  0.72135058  0.78748896  1
  H  H18  1  0.04994875  0.72135056  0.28748896  1
  H  H19  1  0.54994874  0.27864943  0.21251104  1
  H  H20  1  0.71674567  0.88373758  0.01135632  1
  H  H21  1  0.21674566  0.11626243  0.48864369  1
  H  H22  1  0.28325434  0.11626243  0.98864368  1
  H  H23  1  0.78325433  0.88373757  0.51135631  1
  H  H24  1  0.65164659  0.64819909  0.03312435  1
  H  H25  1  0.15164658  0.35180092  0.46687565  1
  H  H26  1  0.34835341  0.35180092  0.96687565  1
  H  H27  1  0.84835341  0.64819908  0.53312435  1
  H  H28  1  0.78677219  0.19204898  0.98371908  1
  H  H29  1  0.28677223  0.80795099  0.51628094  1
  H  H30  1  0.21322780  0.80795102  0.01628092  1
  H  H31  1  0.71322777  0.19204901  0.48371906  1
  H  H32  1  0.94192232  0.40438648  0.61465967  1
  H  H33  1  0.44192230  0.59561352  0.88534032  1
  H  H34  1  0.05807768  0.59561352  0.38534033  1
  H  H35  1  0.55807770  0.40438648  0.11465968  1
  H  H36  1  0.87018355  0.20164203  0.89090005  1
  H  H37  1  0.37018353  0.79835799  0.60909996  1
  H  H38  1  0.12981645  0.79835796  0.10909995  1
  H  H39  1  0.62981647  0.20164202  0.39090004  1
  H  H40  1  0.89470432  0.79897370  0.70729661  1
  H  H41  1  0.39470431  0.20102629  0.79270338  1
  H  H42  1  0.10529569  0.20102629  0.29270339  1
  H  H43  1  0.60529570  0.79897371  0.20729662  1
  H  H44  1  0.70737886  0.89364488  0.66179225  1
  H  H45  1  0.20737885  0.10635511  0.83820774  1
  H  H46  1  0.29262115  0.10635512  0.33820775  1
  H  H47  1  0.79262116  0.89364488  0.16179226  1
  H  H48  1  0.89876831  0.45444638  0.76009944  1
  H  H49  1  0.39876831  0.54555361  0.73990057  1
  H  H50  1  0.10123168  0.54555360  0.23990056  1
  H  H51  1  0.60123169  0.45444640  0.26009944  1
  H  H52  1  0.70607073  0.30802040  0.73783758  1
  H  H53  1  0.20607074  0.69197961  0.76216243  1
  H  H54  1  0.29392926  0.69197959  0.26216242  1
  H  H55  1  0.79392926  0.30802040  0.23783757  1
  H  H56  1  0.76882607  0.70184338  0.96762736  1
  H  H57  1  0.26882606  0.29815664  0.53237264  1
  H  H58  1  0.23117393  0.29815663  0.03237263  1
  H  H59  1  0.73117393  0.70184336  0.46762736  1
  H  H60  1  0.52060145  0.77398393  0.97954600  1
  H  H61  1  0.02060144  0.22601608  0.52045401  1
  H  H62  1  0.47939856  0.22601608  0.02045400  1
  H  H63  1  0.97939855  0.77398391  0.47954599  1
  H  H64  1  0.85173802  0.18989602  0.04931555  1
  H  H65  1  0.35173801  0.81010398  0.45068446  1
  H  H66  1  0.14826197  0.81010398  0.95068445  1
  H  H67  1  0.64826199  0.18989601  0.54931554  1
  H  H68  1  0.70760770  0.44640161  0.59899189  1
  H  H69  1  0.20760770  0.55359840  0.90100811  1
  H  H70  1  0.29239230  0.55359838  0.40100811  1
  H  H71  1  0.79239230  0.44640160  0.09899188  1
  H  H72  1  0.87364795  0.41667865  0.91525931  1
  H  H73  1  0.37364794  0.58332135  0.58474071  1
  H  H74  1  0.12635205  0.58332133  0.08474069  1
  H  H75  1  0.62635206  0.41667866  0.41525929  1
  N  N76  1  0.86398057  0.85181680  0.66494556  1
  N  N77  1  0.36398056  0.14818319  0.83505443  1
  N  N78  1  0.13601944  0.14818319  0.33505444  1
  N  N79  1  0.63601945  0.85181682  0.16494557  1
  N  N80  1  0.86326226  0.31274774  0.74831694  1
  N  N81  1  0.36326227  0.68725226  0.75168306  1
  N  N82  1  0.13673773  0.68725224  0.25168306  1
  N  N83  1  0.63673773  0.31274775  0.24831694  1
  N  N84  1  0.66522764  0.74947159  0.99762409  1
  N  N85  1  0.16522763  0.25052843  0.50237591  1
  N  N86  1  0.33477237  0.25052842  0.00237591  1
  N  N87  1  0.83477236  0.74947158  0.49762409  1
  O  O88  1  0.94929554  0.68889892  0.77548407  1
  O  O89  1  0.44929548  0.31110102  0.72451597  1
  O  O90  1  0.05070446  0.31110107  0.22451593  1
  O  O91  1  0.55070451  0.68889899  0.27548403  1
  O  O92  1  0.97190091  0.65892159  0.91118890  1
  O  O93  1  0.47190097  0.34107846  0.58881114  1
  O  O94  1  0.02809908  0.34107840  0.08881110  1
  O  O95  1  0.52809903  0.65892154  0.41118886  1
  O  O96  1  0.56996019  0.78911063  0.85001266  1
  O  O97  1  0.06996021  0.21088935  0.64998731  1
  O  O98  1  0.43003980  0.21088937  0.14998733  1
  O  O99  1  0.93003978  0.78911065  0.35001269  1
  O  O100  1  0.95564428  0.05977047  0.84158325  1
  O  O101  1  0.45564432  0.94022953  0.65841674  1
  O  O102  1  0.04435573  0.94022952  0.15841676  1
  O  O103  1  0.54435569  0.05977047  0.34158326  1
  O  O104  1  0.75240832  0.13170009  0.02330840  1
  O  O105  1  0.25240835  0.86829991  0.47669163  1
  O  O106  1  0.24759167  0.86829991  0.97669160  1
  O  O107  1  0.74759165  0.13170008  0.52330837  1
  O  O108  1  0.84583464  0.50975611  0.59960531  1
  O  O109  1  0.34583465  0.49024392  0.90039471  1
  O  O110  1  0.15416535  0.49024389  0.40039469  1
  O  O111  1  0.65416535  0.50975609  0.09960529  1
  O  O112  1  0.80724974  0.28612493  0.91954080  1
  O  O113  1  0.30724973  0.71387507  0.58045920  1
  O  O114  1  0.19275025  0.71387506  0.08045920  1
  O  O115  1  0.69275028  0.28612494  0.41954080  1
