# generated using pymatgen
data_SbHS2
_symmetry_space_group_name_H-M   'P 1'
_cell_length_a   5.13916434
_cell_length_b   6.93839550
_cell_length_c   13.15420940
_cell_angle_alpha   91.98866012
_cell_angle_beta   89.98392073
_cell_angle_gamma   111.62500688
_symmetry_Int_Tables_number   1
_chemical_formula_structural   SbHS2
_chemical_formula_sum   'Sb4 H4 S8'
_cell_volume   435.73130300
_cell_formula_units_Z   4
loop_
 _symmetry_equiv_pos_site_id
 _symmetry_equiv_pos_as_xyz
  1  'x, y, z'
loop_
 _atom_site_type_symbol
 _atom_site_label
 _atom_site_symmetry_multiplicity
 _atom_site_fract_x
 _atom_site_fract_y
 _atom_site_fract_z
 _atom_site_occupancy
  Sb  Sb0  1  0.14351835  0.48531159  0.59639172  1
  Sb  Sb1  1  0.79633763  0.54753560  0.85768732  1
  Sb  Sb2  1  0.75170789  0.54784378  0.35793509  1
  Sb  Sb3  1  0.34339047  0.48655952  0.09646674  1
  H  H4  1  0.62255289  -0.08722097  0.03353142  1
  H  H5  1  -0.27732871  -0.10741044  0.74820640  1
  H  H6  1  0.28938414  -0.08851229  0.53409046  1
  H  H7  1  0.16780349  -0.10633456  0.24866394  1
  S  S8  1  0.39280356  0.28758912  0.93617604  1
  S  S9  1  0.03988857  0.80706436  0.57736646  1
  S  S10  1  0.76769233  0.80836755  0.07710439  1
  S  S11  1  0.89655283  0.28759490  0.43594915  1
  S  S12  1  0.58529831  0.31587717  0.20164995  1
  S  S13  1  0.73138970  0.31478297  0.70178920  1
  S  S14  1  0.51230259  0.74984714  0.79833045  1
  S  S15  1  0.23670597  0.75110458  0.29866127  1
