# generated using pymatgen
data_SbPO5
_symmetry_space_group_name_H-M   'P 1'
_cell_length_a   4.87937374
_cell_length_b   8.74355223
_cell_length_c   9.00107241
_cell_angle_alpha   90.00000375
_cell_angle_beta   89.99998631
_cell_angle_gamma   89.99998470
_symmetry_Int_Tables_number   1
_chemical_formula_structural   SbPO5
_chemical_formula_sum   'Sb4 P4 O20'
_cell_volume   384.01328460
_cell_formula_units_Z   4
loop_
 _symmetry_equiv_pos_site_id
 _symmetry_equiv_pos_as_xyz
  1  'x, y, z'
loop_
 _atom_site_type_symbol
 _atom_site_label
 _atom_site_symmetry_multiplicity
 _atom_site_fract_x
 _atom_site_fract_y
 _atom_site_fract_z
 _atom_site_occupancy
  Sb  Sb0  1  0.62243162  0.35236340  0.60174244  1
  Sb  Sb1  1  0.12243162  0.14763656  0.39825762  1
  Sb  Sb2  1  0.37756838  0.85236339  0.89825758  1
  Sb  Sb3  1  0.87756838  0.64763651  0.10174247  1
  P  P4  1  0.61397360  0.96484892  0.21497477  1
  P  P5  1  0.11397384  0.53515083  0.78502546  1
  P  P6  1  0.38602626  0.46484903  0.28502538  1
  P  P7  1  0.88602628  0.03515125  0.71497437  1
  O  O8  1  0.05192062  0.50410761  0.95221865  1
  O  O9  1  0.55192057  -0.00410760  0.04778117  1
  O  O10  1  0.94807935  0.00410761  0.54778141  1
  O  O11  1  0.44807940  0.49589241  0.45221874  1
  O  O12  1  0.20610370  0.70227053  0.75223385  1
  O  O13  1  0.70610361  0.79772962  0.24776604  1
  O  O14  1  0.79389643  0.20227032  0.74776609  1
  O  O15  1  0.29389641  0.29772958  0.25223397  1
  O  O16  1  0.90822689  0.32480326  0.45420899  1
  O  O17  1  0.40822690  0.17519675  0.54579105  1
  O  O18  1  0.09177317  0.82480329  0.04579094  1
  O  O19  1  0.59177301  0.67519677  0.95420889  1
  O  O20  1  0.16496532  0.58570485  0.24841854  1
  O  O21  1  0.66496510  0.91429505  0.75158147  1
  O  O22  1  0.83503469  0.08570487  0.25158149  1
  O  O23  1  0.33503462  0.41429520  0.74841861  1
  O  O24  1  0.64758725  0.48107684  0.18800873  1
  O  O25  1  0.14758746  0.01892316  0.81199136  1
  O  O26  1  0.35241280  0.98107680  0.31199122  1
  O  O27  1  0.85241269  0.51892317  0.68800868  1
