# generated using pymatgen
data_Sc2BiS4
_symmetry_space_group_name_H-M   'P 1'
_cell_length_a   7.65873157
_cell_length_b   7.65873307
_cell_length_c   13.66267037
_cell_angle_alpha   90.00008258
_cell_angle_beta   90.00009250
_cell_angle_gamma   89.99992100
_symmetry_Int_Tables_number   1
_chemical_formula_structural   Sc2BiS4
_chemical_formula_sum   'Sc8 Bi4 S16'
_cell_volume   801.40006274
_cell_formula_units_Z   4
loop_
 _symmetry_equiv_pos_site_id
 _symmetry_equiv_pos_as_xyz
  1  'x, y, z'
loop_
 _atom_site_type_symbol
 _atom_site_label
 _atom_site_symmetry_multiplicity
 _atom_site_fract_x
 _atom_site_fract_y
 _atom_site_fract_z
 _atom_site_occupancy
  Sc  Sc0  1  -0.00000164  0.49999977  0.74999976  1
  Sc  Sc1  1  -0.00000020  0.50000017  0.00000001  1
  Sc  Sc2  1  0.00000060  0.49999908  0.24999970  1
  Sc  Sc3  1  0.49999927  -0.00000059  0.50000030  1
  Sc  Sc4  1  0.50000011  0.00000019  0.25000078  1
  Sc  Sc5  1  0.50000097  0.00000031  0.75000074  1
  Sc  Sc6  1  0.00000048  0.50000128  0.49999992  1
  Sc  Sc7  1  0.49999986  -0.00000005  0.00000107  1
  Bi  Bi8  1  0.49999977  0.50000006  0.61657480  1
  Bi  Bi9  1  0.00000055  -0.00000029  0.88342510  1
  Bi  Bi10  1  0.50000024  0.50000016  0.38342516  1
  Bi  Bi11  1  0.00000015  -0.00000012  0.11657479  1
  S  S12  1  0.83777124  0.33167004  0.87491043  1
  S  S13  1  0.66222749  0.83167085  0.37491169  1
  S  S14  1  0.33167156  0.83777335  0.12508914  1
  S  S15  1  0.83167099  0.66222748  0.62508877  1
  S  S16  1  0.33777190  0.16832942  0.37491141  1
  S  S17  1  0.16222756  0.66832930  0.87491035  1
  S  S18  1  0.83167086  0.33777237  0.37491081  1
  S  S19  1  0.66832865  0.16222663  0.12508927  1
  S  S20  1  0.66222767  0.16832929  0.62508891  1
  S  S21  1  0.16832835  0.33777368  0.62508898  1
  S  S22  1  0.66832982  0.83777188  0.87491076  1
  S  S23  1  0.33167113  0.16222745  0.87491075  1
  S  S24  1  0.16832956  0.66222779  0.37491031  1
  S  S25  1  0.16222693  0.33167123  0.12508793  1
  S  S26  1  0.83777342  0.66832849  0.12508869  1
  S  S27  1  0.33777271  0.83167080  0.62508967  1
