# generated using pymatgen
data_Sc2CdSe4
_symmetry_space_group_name_H-M   'P 1'
_cell_length_a   6.01356225
_cell_length_b   6.01356869
_cell_length_c   7.32659081
_cell_angle_alpha   114.23076270
_cell_angle_beta   114.23106945
_cell_angle_gamma   90.00098030
_symmetry_Int_Tables_number   1
_chemical_formula_structural   Sc2CdSe4
_chemical_formula_sum   'Sc2 Cd1 Se4'
_cell_volume   215.75447595
_cell_formula_units_Z   1
loop_
 _symmetry_equiv_pos_site_id
 _symmetry_equiv_pos_as_xyz
  1  'x, y, z'
loop_
 _atom_site_type_symbol
 _atom_site_label
 _atom_site_symmetry_multiplicity
 _atom_site_fract_x
 _atom_site_fract_y
 _atom_site_fract_z
 _atom_site_occupancy
  Sc  Sc0  1  0.24999905  0.75000123  0.50000220  1
  Sc  Sc1  1  0.49999658  0.50000102  -0.00000053  1
  Cd  Cd2  1  0.00000186  0.00000291  0.00000253  1
  Se  Se3  1  0.86952933  0.87689394  0.26202703  1
  Se  Se4  1  0.39250537  0.38513129  0.26203089  1
  Se  Se5  1  0.12310075  0.60749934  0.73796853  1
  Se  Se6  1  0.61486906  0.13046825  0.73796934  1
