# generated using pymatgen
data_ScAgSe2
_symmetry_space_group_name_H-M   'P 1'
_cell_length_a   6.00528694
_cell_length_b   6.00528877
_cell_length_c   7.54796336
_cell_angle_alpha   113.44043359
_cell_angle_beta   113.44048005
_cell_angle_gamma   90.00164609
_symmetry_Int_Tables_number   1
_chemical_formula_structural   ScAgSe2
_chemical_formula_sum   'Sc2 Ag2 Se4'
_cell_volume   225.04491429
_cell_formula_units_Z   2
loop_
 _symmetry_equiv_pos_site_id
 _symmetry_equiv_pos_as_xyz
  1  'x, y, z'
loop_
 _atom_site_type_symbol
 _atom_site_label
 _atom_site_symmetry_multiplicity
 _atom_site_fract_x
 _atom_site_fract_y
 _atom_site_fract_z
 _atom_site_occupancy
  Sc  Sc0  1  0.49999513  0.49999586  -0.00000054  1
  Sc  Sc1  1  0.74999673  0.24999605  0.50000220  1
  Ag  Ag2  1  0.25000426  0.75000408  0.50000203  1
  Ag  Ag3  1  0.00000410  0.00000421  0.00000194  1
  Se  Se4  1  0.86095245  0.87500053  0.25000149  1
  Se  Se5  1  0.62499851  0.13904945  0.74999610  1
  Se  Se6  1  0.38904898  0.37499900  0.24999558  1
  Se  Se7  1  0.12499985  0.61095082  0.75000119  1
