# generated using pymatgen
data_ScAlS3
_symmetry_space_group_name_H-M   'P 1'
_cell_length_a   6.94166889
_cell_length_b   6.94142144
_cell_length_c   17.51783092
_cell_angle_alpha   89.99998845
_cell_angle_beta   90.00006132
_cell_angle_gamma   119.99847285
_symmetry_Int_Tables_number   1
_chemical_formula_structural   ScAlS3
_chemical_formula_sum   'Sc6 Al6 S18'
_cell_volume   731.02116672
_cell_formula_units_Z   6
loop_
 _symmetry_equiv_pos_site_id
 _symmetry_equiv_pos_as_xyz
  1  'x, y, z'
loop_
 _atom_site_type_symbol
 _atom_site_label
 _atom_site_symmetry_multiplicity
 _atom_site_fract_x
 _atom_site_fract_y
 _atom_site_fract_z
 _atom_site_occupancy
  Sc  Sc0  1  0.66925401  0.67342220  0.28960246  1
  Sc  Sc1  1  0.67346786  0.00416773  0.12293181  1
  Sc  Sc2  1  0.00417636  0.33071472  0.95627294  1
  Sc  Sc3  1  -0.00417950  0.66928333  0.45627457  1
  Sc  Sc4  1  0.32653475  -0.00416795  0.62293329  1
  Sc  Sc5  1  0.33074539  0.32657940  0.78960218  1
  Al  Al6  1  0.66699380  0.98822132  0.48858911  1
  Al  Al7  1  0.32122273  0.33296872  0.15525649  1
  Al  Al8  1  0.33300329  0.01177526  0.98858866  1
  Al  Al9  1  0.67878125  0.66703350  0.65525653  1
  Al  Al10  1  0.98822565  0.32119477  0.32192110  1
  Al  Al11  1  0.01177450  0.67880823  0.82192102  1
  S  S12  1  0.98015327  0.34136484  0.80928152  1
  S  S13  1  0.30946584  0.01191438  0.11847673  1
  S  S14  1  0.35508798  0.31767915  0.93675645  1
  S  S15  1  0.01194434  0.70250560  0.95180546  1
  S  S16  1  0.34135592  0.36125205  0.64261192  1
  S  S17  1  0.96258319  0.64495142  0.60341979  1
  S  S18  1  0.98805420  0.29749279  0.45180518  1
  S  S19  1  0.64490777  0.68231689  0.43675697  1
  S  S20  1  0.65864798  0.63874938  0.14261199  1
  S  S21  1  0.29750113  0.30940949  0.28514612  1
  S  S22  1  0.63879133  0.98010088  0.97594653  1
  S  S23  1  0.70249859  0.69059357  0.78514646  1
  S  S24  1  0.31765259  0.96260391  0.77008171  1
  S  S25  1  0.36120592  0.01989681  0.47594801  1
  S  S26  1  0.69053704  0.98808594  0.61847640  1
  S  S27  1  0.01984734  0.65863851  0.30928301  1
  S  S28  1  0.03741887  0.35504520  0.10341866  1
  S  S29  1  0.68234861  0.03739796  0.27008094  1
