# generated using pymatgen
data_ScBiCl6
_symmetry_space_group_name_H-M   'P 1'
_cell_length_a   12.64454732
_cell_length_b   8.20389477
_cell_length_c   10.94804237
_cell_angle_alpha   82.54988238
_cell_angle_beta   90.00001305
_cell_angle_gamma   90.00001063
_symmetry_Int_Tables_number   1
_chemical_formula_structural   ScBiCl6
_chemical_formula_sum   'Sc4 Bi4 Cl24'
_cell_volume   1126.10273561
_cell_formula_units_Z   4
loop_
 _symmetry_equiv_pos_site_id
 _symmetry_equiv_pos_as_xyz
  1  'x, y, z'
loop_
 _atom_site_type_symbol
 _atom_site_label
 _atom_site_symmetry_multiplicity
 _atom_site_fract_x
 _atom_site_fract_y
 _atom_site_fract_z
 _atom_site_occupancy
  Sc  Sc0  1  0.77094335  0.49921731  0.72199057  1
  Sc  Sc1  1  0.72905619  0.49921721  0.22199076  1
  Sc  Sc2  1  0.27094367  0.50078371  0.77800794  1
  Sc  Sc3  1  0.22905606  0.50078352  0.27800802  1
  Bi  Bi4  1  0.96259774  0.18648370  0.35054340  1
  Bi  Bi5  1  0.53740216  0.18648374  0.85054364  1
  Bi  Bi6  1  0.03740246  0.81351660  0.64945656  1
  Bi  Bi7  1  0.46259752  0.81351636  0.14945639  1
  Cl  Cl8  1  0.43025368  0.00433757  0.29917395  1
  Cl  Cl9  1  0.91202796  0.51620048  0.18385575  1
  Cl  Cl10  1  0.64750517  0.71793551  0.31046348  1
  Cl  Cl11  1  0.13276378  0.49575580  0.46066730  1
  Cl  Cl12  1  0.86723629  0.50424395  0.53933342  1
  Cl  Cl13  1  0.06974644  0.00433768  0.79917379  1
  Cl  Cl14  1  0.36723621  0.49575600  0.96066646  1
  Cl  Cl15  1  0.08797168  0.48379953  0.81614435  1
  Cl  Cl16  1  0.14750514  0.28206447  0.18953682  1
  Cl  Cl17  1  0.41202876  0.48379906  0.31614463  1
  Cl  Cl18  1  0.58797196  0.51620036  0.68385579  1
  Cl  Cl19  1  0.63276358  0.50424392  0.03933325  1
  Cl  Cl20  1  0.62738168  0.98751498  0.04211231  1
  Cl  Cl21  1  0.72724350  0.23778527  0.34104533  1
  Cl  Cl22  1  0.22724382  0.76221372  0.15895526  1
  Cl  Cl23  1  0.37261841  0.01248498  0.95788799  1
  Cl  Cl24  1  0.27275641  0.76221455  0.65895475  1
  Cl  Cl25  1  0.93025361  -0.00433758  0.20082632  1
  Cl  Cl26  1  0.35249491  0.28206415  0.68953643  1
  Cl  Cl27  1  0.77275649  0.23778539  0.84104540  1
  Cl  Cl28  1  0.12738159  0.01248505  0.45788796  1
  Cl  Cl29  1  0.85249503  0.71793563  0.81046344  1
  Cl  Cl30  1  0.56974640  -0.00433756  0.70082629  1
  Cl  Cl31  1  0.87261834  0.98751497  0.54211226  1
