# generated using pymatgen
data_ScBPbO4
_symmetry_space_group_name_H-M   'P 1'
_cell_length_a   7.53885531
_cell_length_b   10.11744710
_cell_length_c   10.50537210
_cell_angle_alpha   89.99999795
_cell_angle_beta   89.99999755
_cell_angle_gamma   89.99999941
_symmetry_Int_Tables_number   1
_chemical_formula_structural   ScBPbO4
_chemical_formula_sum   'Sc8 B8 Pb8 O32'
_cell_volume   801.28643422
_cell_formula_units_Z   8
loop_
 _symmetry_equiv_pos_site_id
 _symmetry_equiv_pos_as_xyz
  1  'x, y, z'
loop_
 _atom_site_type_symbol
 _atom_site_label
 _atom_site_symmetry_multiplicity
 _atom_site_fract_x
 _atom_site_fract_y
 _atom_site_fract_z
 _atom_site_occupancy
  Sc  Sc0  1  0.49999997  -0.00000012  0.49999985  1
  Sc  Sc1  1  0.00000001  0.75000010  0.82188285  1
  Sc  Sc2  1  0.00000001  0.24999989  0.17811706  1
  Sc  Sc3  1  0.49999999  0.75000013  0.32188293  1
  Sc  Sc4  1  -0.00000002  0.00000010  0.00000013  1
  Sc  Sc5  1  0.50000003  0.24999991  0.67811714  1
  Sc  Sc6  1  0.50000001  0.50000012  0.49999990  1
  Sc  Sc7  1  0.00000001  0.49999988  0.00000012  1
  B  B8  1  0.78109501  0.25908963  0.90981519  1
  B  B9  1  0.71890559  0.25908943  0.40981417  1
  B  B10  1  0.71890520  0.75909025  0.59018457  1
  B  B11  1  0.78109416  0.75909005  0.09018562  1
  B  B12  1  0.21890521  0.24090974  0.90981540  1
  B  B13  1  0.21890563  0.74091058  0.09018584  1
  B  B14  1  0.28109503  0.74091036  0.59018479  1
  B  B15  1  0.28109416  0.24090997  0.40981441  1
  Pb  Pb16  1  0.59078738  0.54875425  0.82060597  1
  Pb  Pb17  1  0.40921250  0.45124580  0.17939405  1
  Pb  Pb18  1  0.40921258  0.95124578  0.82060605  1
  Pb  Pb19  1  0.90921248  0.54875418  0.32060598  1
  Pb  Pb20  1  0.59078751  0.04875417  0.17939399  1
  Pb  Pb21  1  0.09078741  0.45124574  0.67939400  1
  Pb  Pb22  1  0.90921263  0.04875424  0.67939399  1
  Pb  Pb23  1  0.09078751  0.95124582  0.32060599  1
  O  O24  1  0.33399004  0.87137545  0.60947062  1
  O  O25  1  0.67820984  0.32087279  0.81708441  1
  O  O26  1  0.83399006  0.12862454  0.89052939  1
  O  O27  1  0.66600996  0.12862463  0.39052941  1
  O  O28  1  0.83135159  0.82682781  0.98052398  1
  O  O29  1  0.66600982  0.62862424  0.60947057  1
  O  O30  1  0.33399013  0.37137570  0.39052948  1
  O  O31  1  0.40153869  0.93808869  0.32891772  1
  O  O32  1  0.90153869  0.06191130  0.17108230  1
  O  O33  1  0.83399013  0.62862431  0.10947054  1
  O  O34  1  0.82178971  0.32087270  0.31708469  1
  O  O35  1  0.09846124  0.93808848  0.82891767  1
  O  O36  1  0.66864865  0.82682762  0.48052445  1
  O  O37  1  0.32178977  0.67912732  0.18291524  1
  O  O38  1  0.17821019  0.17912738  0.31708487  1
  O  O39  1  0.17820990  0.67912719  0.68291563  1
  O  O40  1  0.32179015  0.17912726  0.81708449  1
  O  O41  1  0.09846125  0.43808875  0.17108222  1
  O  O42  1  0.67821027  0.82087264  0.18291517  1
  O  O43  1  0.66864824  0.32682795  0.51947608  1
  O  O44  1  0.59846127  0.06191151  0.67108232  1
  O  O45  1  0.83135151  0.32682774  0.01947562  1
  O  O46  1  0.33135146  0.67317228  0.48052438  1
  O  O47  1  0.33135161  0.17317218  0.51947601  1
  O  O48  1  0.16600983  0.37137578  0.89052942  1
  O  O49  1  0.82179022  0.82087273  0.68291546  1
  O  O50  1  0.16864869  0.17317238  0.01947557  1
  O  O51  1  0.59846125  0.56191125  0.32891776  1
  O  O52  1  0.90153882  0.56191146  0.82891774  1
  O  O53  1  0.16864821  0.67317205  0.98052393  1
  O  O54  1  0.16600997  0.87137536  0.10947057  1
  O  O55  1  0.40153883  0.43808855  0.67108227  1
