# generated using pymatgen
data_ScCr4CuS8
_symmetry_space_group_name_H-M   'P 1'
_cell_length_a   7.14642447
_cell_length_b   7.14642449
_cell_length_c   7.14642256
_cell_angle_alpha   59.99964429
_cell_angle_beta   59.99963943
_cell_angle_gamma   59.99964411
_symmetry_Int_Tables_number   1
_chemical_formula_structural   ScCr4CuS8
_chemical_formula_sum   'Sc1 Cr4 Cu1 S8'
_cell_volume   258.07610318
_cell_formula_units_Z   1
loop_
 _symmetry_equiv_pos_site_id
 _symmetry_equiv_pos_as_xyz
  1  'x, y, z'
loop_
 _atom_site_type_symbol
 _atom_site_label
 _atom_site_symmetry_multiplicity
 _atom_site_fract_x
 _atom_site_fract_y
 _atom_site_fract_z
 _atom_site_occupancy
  Sc  Sc0  1  0.49999955  0.49999963  0.49999941  1
  Cr  Cr1  1  0.63510862  0.12163015  0.12163020  1
  Cr  Cr2  1  0.12163011  0.63510866  0.12163016  1
  Cr  Cr3  1  0.12163023  0.12163012  0.63510860  1
  Cr  Cr4  1  0.12163037  0.12163031  0.12163036  1
  Cu  Cu5  1  0.74999984  0.74999987  0.74999979  1
  S  S6  1  0.34688001  0.88437318  0.88437321  1
  S  S7  1  0.88437337  0.34687998  0.88437316  1
  S  S8  1  0.88437313  0.88437329  0.34687996  1
  S  S9  1  0.88437325  0.88437334  0.88437336  1
  S  S10  1  0.91602934  0.36132336  0.36132346  1
  S  S11  1  0.36132329  0.91602933  0.36132345  1
  S  S12  1  0.36132344  0.36132332  0.91602939  1
  S  S13  1  0.36132345  0.36132346  0.36132350  1
