# generated using pymatgen
data_ScCuBr4
_symmetry_space_group_name_H-M   'P 1'
_cell_length_a   5.97237409
_cell_length_b   5.97237494
_cell_length_c   11.09053029
_cell_angle_alpha   89.99999617
_cell_angle_beta   90.00001060
_cell_angle_gamma   90.00000336
_symmetry_Int_Tables_number   1
_chemical_formula_structural   ScCuBr4
_chemical_formula_sum   'Sc2 Cu2 Br8'
_cell_volume   395.59097903
_cell_formula_units_Z   2
loop_
 _symmetry_equiv_pos_site_id
 _symmetry_equiv_pos_as_xyz
  1  'x, y, z'
loop_
 _atom_site_type_symbol
 _atom_site_label
 _atom_site_symmetry_multiplicity
 _atom_site_fract_x
 _atom_site_fract_y
 _atom_site_fract_z
 _atom_site_occupancy
  Sc  Sc0  1  0.00000013  0.50000023  0.75000035  1
  Sc  Sc1  1  0.49999947  0.00000008  0.24999970  1
  Cu  Cu2  1  0.49999995  0.49999987  0.00000009  1
  Cu  Cu3  1  0.49999985  0.50000001  0.49999998  1
  Br  Br4  1  0.24849325  0.74146240  0.87983829  1
  Br  Br5  1  0.75150683  0.25853758  0.87983833  1
  Br  Br6  1  0.24849313  0.25853723  0.62016169  1
  Br  Br7  1  0.75150681  0.74146293  0.62016153  1
  Br  Br8  1  0.74146261  0.75150672  0.12016165  1
  Br  Br9  1  0.25853780  0.24849304  0.12016166  1
  Br  Br10  1  0.25853732  0.75150687  0.37983838  1
  Br  Br11  1  0.74146285  0.24849303  0.37983835  1
