# generated using pymatgen
data_ScCuSe2
_symmetry_space_group_name_H-M   'P 1'
_cell_length_a   5.80208911
_cell_length_b   5.80208835
_cell_length_c   7.16338967
_cell_angle_alpha   113.88862472
_cell_angle_beta   113.88863022
_cell_angle_gamma   89.99785738
_symmetry_Int_Tables_number   1
_chemical_formula_structural   ScCuSe2
_chemical_formula_sum   'Sc2 Cu2 Se4'
_cell_volume   197.68814758
_cell_formula_units_Z   2
loop_
 _symmetry_equiv_pos_site_id
 _symmetry_equiv_pos_as_xyz
  1  'x, y, z'
loop_
 _atom_site_type_symbol
 _atom_site_label
 _atom_site_symmetry_multiplicity
 _atom_site_fract_x
 _atom_site_fract_y
 _atom_site_fract_z
 _atom_site_occupancy
  Sc  Sc0  1  0.75001374  0.25001287  0.50000353  1
  Sc  Sc1  1  0.50001286  0.50001385  0.00000353  1
  Cu  Cu2  1  0.25000807  0.75000458  0.50000244  1
  Cu  Cu3  1  0.00000456  0.00000804  0.00000236  1
  Se  Se4  1  0.35456065  0.37499000  0.24999594  1
  Se  Se5  1  0.12498901  0.64542055  0.74999811  1
  Se  Se6  1  0.62499078  0.10456096  0.74999645  1
  Se  Se7  1  0.89542034  0.87498914  0.24999764  1
