# generated using pymatgen
data_ScH14SeNO14
_symmetry_space_group_name_H-M   'P 1'
_cell_length_a   6.35305373
_cell_length_b   8.11469321
_cell_length_c   12.78208463
_cell_angle_alpha   91.18325307
_cell_angle_beta   102.09806475
_cell_angle_gamma   96.95752527
_symmetry_Int_Tables_number   1
_chemical_formula_structural   ScH14SeNO14
_chemical_formula_sum   'Sc2 H28 Se2 N2 O28'
_cell_volume   638.85612830
_cell_formula_units_Z   2
loop_
 _symmetry_equiv_pos_site_id
 _symmetry_equiv_pos_as_xyz
  1  'x, y, z'
loop_
 _atom_site_type_symbol
 _atom_site_label
 _atom_site_symmetry_multiplicity
 _atom_site_fract_x
 _atom_site_fract_y
 _atom_site_fract_z
 _atom_site_occupancy
  Sc  Sc0  1  0.40974397  0.74488870  0.78136535  1
  Sc  Sc1  1  0.59025602  0.25511129  0.21863461  1
  H  H2  1  0.66492906  0.81446027  0.98535363  1
  H  H3  1  0.33507091  0.18553973  0.01464638  1
  H  H4  1  0.40721762  0.42917147  0.86644379  1
  H  H5  1  0.59278242  0.57082852  0.13355622  1
  H  H6  1  0.66980188  -0.00771320  0.92933786  1
  H  H7  1  0.33019809  0.00771322  0.07066213  1
  H  H8  1  0.71138758  0.76115578  0.64890187  1
  H  H9  1  0.28861247  0.23884431  0.35109817  1
  H  H10  1  0.14483863  0.72885792  0.93322871  1
  H  H11  1  0.85516136  0.27114207  0.06677128  1
  H  H12  1  0.22668933  0.66081607  0.56284556  1
  H  H13  1  0.77331062  0.33918386  0.43715446  1
  H  H14  1  0.31042076  0.01151715  0.65092712  1
  H  H15  1  0.68957924  0.98848284  0.34907286  1
  H  H16  1  0.79152928  0.90753153  0.74447734  1
  H  H17  1  0.20847076  0.09246850  0.25552271  1
  H  H18  1  0.17440369  0.01696811  0.74386153  1
  H  H19  1  0.82559635  0.98303188  0.25613845  1
  H  H20  1  0.20939051  0.85154433  0.43360923  1
  H  H21  1  0.79060946  0.14845559  0.56639074  1
  H  H22  1  0.28749147  0.49592549  0.62843876  1
  H  H23  1  0.71250847  0.50407450  0.37156126  1
  H  H24  1  0.03486825  0.58909697  0.83606147  1
  H  H25  1  0.96513174  0.41090302  0.16393852  1
  H  H26  1  0.17083875  0.67239352  0.37853998  1
  H  H27  1  0.82916123  0.32760638  0.62146002  1
  H  H28  1  0.63101477  0.46186213  0.82219021  1
  H  H29  1  0.36898526  0.53813787  0.17780978  1
  Se  Se30  1  0.96825907  0.24225462  0.85573928  1
  Se  Se31  1  0.03174096  0.75774538  0.14426072  1
  N  N32  1  0.69842005  0.76079614  0.45983642  1
  N  N33  1  0.30157989  0.23920395  0.54016357  1
  O  O34  1  0.26176978  0.61567746  0.63689754  1
  O  O35  1  0.73823021  0.38432254  0.36310249  1
  O  O36  1  0.50785863  0.51455678  0.83957255  1
  O  O37  1  0.49214141  0.48544321  0.16042744  1
  O  O38  1  0.29242427  0.96271571  0.72093741  1
  O  O39  1  0.70757576  0.03728428  0.27906255  1
  O  O40  1  0.69052485  0.80280407  0.72094713  1
  O  O41  1  0.30947520  0.19719596  0.27905291  1
  O  O42  1  0.59079780  0.87684670  0.92390397  1
  O  O43  1  0.40920218  0.12315332  0.07609605  1
  O  O44  1  0.14467790  0.68957230  0.85816830  1
  O  O45  1  0.85532209  0.31042768  0.14183170  1
  O  O46  1  0.95324505  0.08513954  0.76634076  1
  O  O47  1  0.04675503  0.91486045  0.23365925  1
  O  O48  1  0.22742157  0.29938868  0.91782987  1
  O  O49  1  0.77257844  0.70061135  0.08217013  1
  O  O50  1  0.87078959  0.40537198  0.79168620  1
  O  O51  1  0.12921043  0.59462800  0.20831378  1
  O  O52  1  0.81965350  0.18115420  0.94527530  1
  O  O53  1  0.18034651  0.81884578  0.05472469  1
  O  O54  1  0.69809800  0.91706842  0.47073508  1
  O  O55  1  0.30190193  0.08293164  0.52926488  1
  O  O56  1  0.66541427  0.69389635  0.36664453  1
  O  O57  1  0.33458565  0.30610364  0.63335548  1
  O  O58  1  0.73109107  0.67276996  0.54066694  1
  O  O59  1  0.26890899  0.32723018  0.45933309  1
  O  O60  1  0.17978184  0.73376554  0.44630704  1
  O  O61  1  0.82021812  0.26623439  0.55369295  1
