# generated using pymatgen
data_ScH10N2OF5
_symmetry_space_group_name_H-M   'P 1'
_cell_length_a   7.82744508
_cell_length_b   8.26771939
_cell_length_c   10.95700789
_cell_angle_alpha   90.00001553
_cell_angle_beta   89.99996806
_cell_angle_gamma   89.99999566
_symmetry_Int_Tables_number   1
_chemical_formula_structural   ScH10N2OF5
_chemical_formula_sum   'Sc4 H40 N8 O4 F20'
_cell_volume   709.08407455
_cell_formula_units_Z   4
loop_
 _symmetry_equiv_pos_site_id
 _symmetry_equiv_pos_as_xyz
  1  'x, y, z'
loop_
 _atom_site_type_symbol
 _atom_site_label
 _atom_site_symmetry_multiplicity
 _atom_site_fract_x
 _atom_site_fract_y
 _atom_site_fract_z
 _atom_site_occupancy
  Sc  Sc0  1  0.75000013  0.30240770  0.49999988  1
  Sc  Sc1  1  0.25000002  0.19759215  0.00000003  1
  Sc  Sc2  1  0.24999992  0.69759237  0.50000006  1
  Sc  Sc3  1  0.75000000  0.80240788  -0.00000007  1
  H  H4  1  0.88746249  0.48582333  0.11329553  1
  H  H5  1  0.38746229  0.01417673  0.38670443  1
  H  H6  1  0.61253767  0.48582327  0.88670433  1
  H  H7  1  0.11253782  0.01417675  0.61329572  1
  H  H8  1  0.11253766  0.51417666  0.88670455  1
  H  H9  1  0.61253772  -0.01417652  0.61329568  1
  H  H10  1  0.38746209  0.51417673  0.11329566  1
  H  H11  1  0.88746217  -0.01417651  0.38670422  1
  H  H12  1  0.01820866  0.34848478  0.18576463  1
  H  H13  1  0.51820860  0.15151542  0.31423554  1
  H  H14  1  0.48179139  0.34848468  0.81423532  1
  H  H15  1  0.98179136  0.15151552  0.68576449  1
  H  H16  1  0.98179155  0.65151538  0.81423544  1
  H  H17  1  0.48179144  0.84848478  0.68576452  1
  H  H18  1  0.51820843  0.65151538  0.18576463  1
  H  H19  1  0.01820860  0.84848476  0.31423544  1
  H  H20  1  0.83462388  0.40750097  0.25067537  1
  H  H21  1  0.33462372  0.09249927  0.24932463  1
  H  H22  1  0.66537602  0.40750084  0.74932444  1
  H  H23  1  0.83462395  0.90750084  0.24932433  1
  H  H24  1  0.16537626  0.59249919  0.74932468  1
  H  H25  1  0.66537619  0.90750095  0.75067552  1
  H  H26  1  0.33462387  0.59249925  0.25067557  1
  H  H27  1  0.00125794  0.03844893  0.25971705  1
  H  H28  1  0.00125781  0.53844910  0.24028288  1
  H  H29  1  0.50125775  0.96155120  0.25971717  1
  H  H30  1  0.49874205  0.53844898  0.75971709  1
  H  H31  1  0.99874208  0.96155132  0.74028285  1
  H  H32  1  0.65145840  0.13000809  0.02842728  1
  H  H33  1  0.15145836  0.36999158  0.47157289  1
  H  H34  1  0.84854152  0.13000789  0.97157286  1
  H  H35  1  0.34854167  0.36999165  0.52842691  1
  H  H36  1  0.34854165  0.86999164  0.97157275  1
  H  H37  1  0.84854165  0.63000825  0.52842712  1
  H  H38  1  0.15145851  0.86999169  0.02842719  1
  H  H39  1  0.65145846  0.63000814  0.47157284  1
  H  H40  1  0.49874211  0.03844897  0.74028289  1
  H  H41  1  0.50125784  0.46155120  0.24028293  1
  H  H42  1  0.99874225  0.46155120  0.75971708  1
  H  H43  1  0.16537608  0.09249937  0.75067555  1
  N  N44  1  0.06433929  0.05382915  0.69676992  1
  N  N45  1  0.56433946  0.44617072  0.80322988  1
  N  N46  1  0.43566063  0.05382902  0.30323017  1
  N  N47  1  0.93566053  0.44617085  0.19677002  1
  N  N48  1  0.06433950  0.55382939  0.80322988  1
  N  N49  1  0.43566046  0.55382947  0.19677021  1
  N  N50  1  0.93566080  0.94617101  0.30322988  1
  N  N51  1  0.56433921  0.94617108  0.69677002  1
  O  O52  1  0.75000015  0.56192876  0.49999985  1
  O  O53  1  0.25000014  0.93807136  0.00000011  1
  O  O54  1  0.24999995  0.43807102  0.49999992  1
  O  O55  1  0.74999984  0.06192826  0.00000003  1
  F  F56  1  0.64977150  0.82178699  0.17315690  1
  F  F57  1  0.14977156  0.17821270  0.17315690  1
  F  F58  1  0.85022837  0.32178726  0.67315684  1
  F  F59  1  0.35022851  0.17821281  0.82684314  1
  F  F60  1  0.35022847  0.67821257  0.67315694  1
  F  F61  1  0.85022849  0.82178721  0.82684304  1
  F  F62  1  0.14977141  0.67821270  0.32684318  1
  F  F63  1  0.64977165  0.32178731  0.32684298  1
  F  F64  1  -0.01410570  0.28694574  0.42944173  1
  F  F65  1  0.48589423  0.21305388  0.07055810  1
  F  F66  1  0.75000002  0.55722145  -0.00000020  1
  F  F67  1  0.01410586  0.21305384  0.92944201  1
  F  F68  1  0.01410582  0.71305399  0.57055831  1
  F  F69  1  0.51410572  0.78694575  0.92944188  1
  F  F70  1  0.48589420  0.71305401  0.42944189  1
  F  F71  1  -0.01410590  0.78694581  0.07055808  1
  F  F72  1  0.75000002  0.05722116  0.49999987  1
  F  F73  1  0.25000000  0.44277842  0.00000025  1
  F  F74  1  0.24999992  0.94277872  0.50000020  1
  F  F75  1  0.51410587  0.28694583  0.57055815  1
