# generated using pymatgen
data_ScH15N5Cl3
_symmetry_space_group_name_H-M   'P 1'
_cell_length_a   6.92068376
_cell_length_b   11.04337747
_cell_length_c   13.79944366
_cell_angle_alpha   89.99999969
_cell_angle_beta   90.00001389
_cell_angle_gamma   89.99999965
_symmetry_Int_Tables_number   1
_chemical_formula_structural   ScH15N5Cl3
_chemical_formula_sum   'Sc4 H60 N20 Cl12'
_cell_volume   1054.66005915
_cell_formula_units_Z   4
loop_
 _symmetry_equiv_pos_site_id
 _symmetry_equiv_pos_as_xyz
  1  'x, y, z'
loop_
 _atom_site_type_symbol
 _atom_site_label
 _atom_site_symmetry_multiplicity
 _atom_site_fract_x
 _atom_site_fract_y
 _atom_site_fract_z
 _atom_site_occupancy
  Sc  Sc0  1  0.32931561  0.25000001  0.59002069  1
  Sc  Sc1  1  0.17070446  0.25000000  0.09005185  1
  Sc  Sc2  1  0.67070481  0.74999997  0.40994640  1
  Sc  Sc3  1  0.82931634  0.75000001  0.90998054  1
  H  H4  1  0.51904054  0.24999990  0.77614044  1
  H  H5  1  -0.01904488  0.25000003  0.27613482  1
  H  H6  1  0.48095505  0.74999999  0.22386562  1
  H  H7  1  0.01904048  0.75000010  0.72385945  1
  H  H8  1  0.64969252  0.17428233  0.69589416  1
  H  H9  1  0.85030961  0.32571330  0.19589625  1
  H  H10  1  0.35030990  0.67428700  0.30410356  1
  H  H11  1  0.14969264  0.82571780  0.80410603  1
  H  H12  1  0.35031019  0.82571266  0.30410360  1
  H  H13  1  0.14969230  0.67428254  0.80410597  1
  H  H14  1  0.64969185  0.32571708  0.69589420  1
  H  H15  1  0.85030973  0.17428689  0.19589625  1
  H  H16  1  0.94216152  0.25000009  0.50388484  1
  H  H17  1  0.55784452  0.24999992  0.00388856  1
  H  H18  1  0.05784511  0.75000006  0.49611116  1
  H  H19  1  0.44216195  0.75000003  0.99611524  1
  H  H20  1  0.40019245  0.17410718  0.93700881  1
  H  H21  1  0.09980565  0.32588748  0.43701124  1
  H  H22  1  0.59980559  0.67411316  0.06298843  1
  H  H23  1  0.90019259  0.82589296  0.56299134  1
  H  H24  1  0.59980561  0.82588697  0.06298847  1
  H  H25  1  0.90019262  0.67410736  0.56299122  1
  H  H26  1  0.40019246  0.32589217  0.93700910  1
  H  H27  1  0.09980563  0.17411331  0.43701163  1
  H  H28  1  0.13019232  0.25000003  0.77603566  1
  H  H29  1  0.36981347  0.24999998  0.27602879  1
  H  H30  1  0.86981389  0.75000005  0.22397154  1
  H  H31  1  0.63019271  0.74999999  0.72396406  1
  H  H32  1  0.00297882  0.17455552  0.69538143  1
  H  H33  1  0.49701761  0.32543864  0.19538457  1
  H  H34  1  0.99701766  0.67456172  0.30461518  1
  H  H35  1  0.50297879  0.82544479  0.80461876  1
  H  H36  1  0.99701775  0.82543837  0.30461524  1
  H  H37  1  0.50297848  0.67455489  0.80461873  1
  H  H38  1  0.00297851  0.32544484  0.69538144  1
  H  H39  1  0.49701770  0.17456131  0.19538455  1
  H  H40  1  0.27791978  0.00603984  0.53589610  1
  H  H41  1  0.22207884  0.49396326  0.03589841  1
  H  H42  1  0.72207884  0.50603648  0.46410161  1
  H  H43  1  0.77791981  0.99396014  0.96410371  1
  H  H44  1  0.72207880  0.99396345  0.46410149  1
  H  H45  1  0.77791985  0.50603986  0.96410374  1
  H  H46  1  0.27791983  0.49396010  0.53589612  1
  H  H47  1  0.22207879  0.00603675  0.03589849  1
  H  H48  1  0.45978491  0.01067457  0.61358997  1
  H  H49  1  0.04021879  0.48932591  0.11358983  1
  H  H50  1  0.54021863  0.51067422  0.38641012  1
  H  H51  1  0.95978500  0.98932550  0.88641008  1
  H  H52  1  0.54021842  0.98932573  0.38641010  1
  H  H53  1  0.95978504  0.51067444  0.88641007  1
  H  H54  1  0.45978496  0.48932550  0.61358998  1
  H  H55  1  0.04021862  0.01067409  0.11358988  1
  H  H56  1  0.23565117  0.01205350  0.65373368  1
  H  H57  1  0.26434456  0.48794550  0.15373129  1
  H  H58  1  0.76434453  0.51205474  0.34626856  1
  H  H59  1  0.73565152  0.98794653  0.84626631  1
  H  H60  1  0.76434434  0.98794519  0.34626848  1
  H  H61  1  0.73565145  0.51205345  0.84626634  1
  H  H62  1  0.23565112  0.48794651  0.65373363  1
  H  H63  1  0.26434453  0.01205451  0.15373137  1
  N  N64  1  0.56364362  0.25000043  0.70554567  1
  N  N65  1  0.93636661  0.24999991  0.20553978  1
  N  N66  1  0.43636779  0.75000019  0.29446072  1
  N  N67  1  0.06364437  0.74999981  0.79445417  1
  N  N68  1  0.08280774  0.24999943  0.48034645  1
  N  N69  1  0.41720018  0.25000043  -0.01965904  1
  N  N70  1  0.91720103  0.74999983  0.51965955  1
  N  N71  1  0.58280826  0.74999995  0.01965328  1
  N  N72  1  0.08949203  0.24999978  0.70464455  1
  N  N73  1  0.41049216  0.25000005  0.20463727  1
  N  N74  1  0.91049140  0.74999994  0.29536313  1
  N  N75  1  0.58949134  0.75000022  0.79535509  1
  N  N76  1  0.32367453  0.04458520  0.59988022  1
  N  N77  1  0.17632394  0.45541042  0.09987951  1
  N  N78  1  0.67632392  0.54458945  0.40012051  1
  N  N79  1  0.82367464  0.95541464  0.90011977  1
  N  N80  1  0.67632398  0.95541049  0.40012052  1
  N  N81  1  0.82367458  0.54458529  0.90011981  1
  N  N82  1  0.32367433  0.45541480  0.59988013  1
  N  N83  1  0.17632399  0.04458952  0.09987951  1
  Cl  Cl84  1  0.93573953  0.24999999  0.96183449  1
  Cl  Cl85  1  0.56424275  0.25000002  0.46184704  1
  Cl  Cl86  1  0.06424222  0.75000002  0.03815243  1
  Cl  Cl87  1  0.43573849  0.75000001  0.53816629  1
  Cl  Cl88  1  0.31827093  -0.00177464  0.85347765  1
  Cl  Cl89  1  0.18172915  0.50177466  0.35347970  1
  Cl  Cl90  1  0.68172894  0.49822512  0.14652038  1
  Cl  Cl91  1  0.81827096  0.00177452  0.64652225  1
  Cl  Cl92  1  0.68172903  0.00177489  0.14652033  1
  Cl  Cl93  1  0.81827081  0.49822550  0.64652230  1
  Cl  Cl94  1  0.31827088  0.50177461  0.85347753  1
  Cl  Cl95  1  0.18172921  -0.00177466  0.35347984  1
