# generated using pymatgen
data_ScH2PbO2F3
_symmetry_space_group_name_H-M   'P 1'
_cell_length_a   5.23136947
_cell_length_b   6.68641137
_cell_length_c   7.28390011
_cell_angle_alpha   105.45435824
_cell_angle_beta   89.98528481
_cell_angle_gamma   106.14323081
_symmetry_Int_Tables_number   1
_chemical_formula_structural   ScH2PbO2F3
_chemical_formula_sum   'Sc2 H4 Pb2 O4 F6'
_cell_volume   235.13770167
_cell_formula_units_Z   2
loop_
 _symmetry_equiv_pos_site_id
 _symmetry_equiv_pos_as_xyz
  1  'x, y, z'
loop_
 _atom_site_type_symbol
 _atom_site_label
 _atom_site_symmetry_multiplicity
 _atom_site_fract_x
 _atom_site_fract_y
 _atom_site_fract_z
 _atom_site_occupancy
  Sc  Sc0  1  0.17278519  0.20839653  0.67900107  1
  Sc  Sc1  1  0.82721483  0.79160347  0.32099893  1
  H  H2  1  0.74175392  0.19293008  0.45171115  1
  H  H3  1  0.25824604  0.80706992  0.54828885  1
  H  H4  1  0.73853559  0.16338871  0.89001791  1
  H  H5  1  0.26146451  0.83661127  0.10998208  1
  Pb  Pb6  1  0.80719468  0.71960850  0.80823133  1
  Pb  Pb7  1  0.19280532  0.28039150  0.19176868  1
  O  O8  1  0.90018874  0.13696937  0.43298806  1
  O  O9  1  0.09981130  0.86303062  0.56701194  1
  O  O10  1  0.90166965  0.11420693  0.88204843  1
  O  O11  1  0.09833026  0.88579310  0.11795158  1
  F  F12  1  0.45684697  0.24029425  0.88215527  1
  F  F13  1  0.54315304  0.75970575  0.11784474  1
  F  F14  1  0.46415772  0.26646376  0.49988775  1
  F  F15  1  0.53584227  0.73353624  0.50011225  1
  F  F16  1  0.14847584  0.51190206  0.76511858  1
  F  F17  1  0.85152415  0.48809793  0.23488140  1
