# generated using pymatgen
data_ScH3NCl3
_symmetry_space_group_name_H-M   'P 1'
_cell_length_a   10.57786053
_cell_length_b   10.60901752
_cell_length_c   12.23868041
_cell_angle_alpha   89.99995233
_cell_angle_beta   89.99995466
_cell_angle_gamma   90.00009556
_symmetry_Int_Tables_number   1
_chemical_formula_structural   ScH3NCl3
_chemical_formula_sum   'Sc8 H24 N8 Cl24'
_cell_volume   1373.43337676
_cell_formula_units_Z   8
loop_
 _symmetry_equiv_pos_site_id
 _symmetry_equiv_pos_as_xyz
  1  'x, y, z'
loop_
 _atom_site_type_symbol
 _atom_site_label
 _atom_site_symmetry_multiplicity
 _atom_site_fract_x
 _atom_site_fract_y
 _atom_site_fract_z
 _atom_site_occupancy
  Sc  Sc0  1  0.17063118  0.59952784  0.67101861  1
  Sc  Sc1  1  0.17062991  0.90047336  0.17101763  1
  Sc  Sc2  1  0.32936965  0.09952672  0.67101732  1
  Sc  Sc3  1  0.32936720  0.40047438  0.17101923  1
  Sc  Sc4  1  0.67063156  0.59952742  0.82898261  1
  Sc  Sc5  1  0.67063101  0.90047402  0.32898254  1
  Sc  Sc6  1  0.82937058  0.09952671  0.82898279  1
  Sc  Sc7  1  0.82936690  0.40047521  0.32898047  1
  H  H8  1  0.96134339  0.75500343  0.11823939  1
  H  H9  1  0.96134591  0.74499703  0.61823897  1
  H  H10  1  0.03305497  0.78801311  0.00275917  1
  H  H11  1  0.03305500  0.71198567  0.50275855  1
  H  H12  1  0.08439003  0.67137975  0.07915764  1
  H  H13  1  0.08439189  0.82862301  0.57915755  1
  H  H14  1  0.41560619  0.17137327  0.07915698  1
  H  H15  1  0.41560800  0.32861981  0.57915781  1
  H  H16  1  0.46694500  0.21198578  0.50275742  1
  H  H17  1  0.46694318  0.28801177  0.00276355  1
  H  H18  1  0.53864926  0.25500321  0.11823843  1
  H  H19  1  0.53865530  0.24499581  0.61824003  1
  H  H20  1  0.46134899  0.75500303  0.38176037  1
  H  H21  1  0.46134412  0.74499540  0.88175830  1
  H  H22  1  0.53305593  0.71198616  0.99723969  1
  H  H23  1  0.53305596  0.78801170  0.49723913  1
  H  H24  1  0.58439289  0.67137449  0.42084324  1
  H  H25  1  0.58439183  0.82862248  0.92084160  1
  H  H26  1  0.91560982  0.17137821  0.42084287  1
  H  H27  1  0.91560886  0.32862396  0.92084356  1
  H  H28  1  0.96694436  0.21198674  0.99724030  1
  H  H29  1  0.96694465  0.28801327  0.49723871  1
  H  H30  1  0.03865116  0.24499506  0.88176073  1
  H  H31  1  0.03865168  0.25500353  0.38176147  1
  N  N32  1  0.04929314  0.76192957  0.08258589  1
  N  N33  1  0.04928855  0.73806836  0.58258910  1
  N  N34  1  0.45070982  0.23807264  0.58258676  1
  N  N35  1  0.45071670  0.26193610  0.08258559  1
  N  N36  1  0.54928513  0.76192980  0.41741526  1
  N  N37  1  0.54929231  0.73806900  0.91741406  1
  N  N38  1  0.95071295  0.23806989  0.91741382  1
  N  N39  1  0.95071136  0.26193176  0.41741168  1
  Cl  Cl40  1  0.04518039  0.08098594  0.17256182  1
  Cl  Cl41  1  0.04517942  0.41901489  0.67256157  1
  Cl  Cl42  1  0.14942983  0.44017037  0.06834693  1
  Cl  Cl43  1  0.14943108  0.05982923  0.56834538  1
  Cl  Cl44  1  0.22617358  0.68459690  0.83974933  1
  Cl  Cl45  1  0.22617289  0.81540345  0.33974785  1
  Cl  Cl46  1  0.27382710  0.18459655  0.83974964  1
  Cl  Cl47  1  0.27382570  0.31540323  0.33975083  1
  Cl  Cl48  1  0.35057094  0.55982939  0.56834607  1
  Cl  Cl49  1  0.35056937  0.94017062  0.06834641  1
  Cl  Cl50  1  0.45482276  0.58098670  0.17256209  1
  Cl  Cl51  1  0.45482276  0.91901293  0.67256161  1
  Cl  Cl52  1  0.54517555  0.08098769  0.32743860  1
  Cl  Cl53  1  0.54517839  0.41901316  0.82743867  1
  Cl  Cl54  1  0.64942866  0.44017024  0.43165360  1
  Cl  Cl55  1  0.64942914  0.05983015  0.93165341  1
  Cl  Cl56  1  0.72617471  0.68459643  0.66025058  1
  Cl  Cl57  1  0.72617471  0.81540303  0.16025097  1
  Cl  Cl58  1  0.77382574  0.31540351  0.16025083  1
  Cl  Cl59  1  0.77382617  0.18459682  0.66025158  1
  Cl  Cl60  1  0.85057061  0.55982986  0.93165266  1
  Cl  Cl61  1  0.85057069  0.94017126  0.43165415  1
  Cl  Cl62  1  0.95482249  0.91901346  0.82743817  1
  Cl  Cl63  1  0.95482105  0.58098573  0.32743847  1
