# generated using pymatgen
data_ScH4NF4
_symmetry_space_group_name_H-M   'P 1'
_cell_length_a   5.43350143
_cell_length_b   5.43340877
_cell_length_c   13.40511212
_cell_angle_alpha   90.00006682
_cell_angle_beta   89.99998337
_cell_angle_gamma   89.99999409
_symmetry_Int_Tables_number   1
_chemical_formula_structural   ScH4NF4
_chemical_formula_sum   'Sc4 H16 N4 F16'
_cell_volume   395.75154214
_cell_formula_units_Z   4
loop_
 _symmetry_equiv_pos_site_id
 _symmetry_equiv_pos_as_xyz
  1  'x, y, z'
loop_
 _atom_site_type_symbol
 _atom_site_label
 _atom_site_symmetry_multiplicity
 _atom_site_fract_x
 _atom_site_fract_y
 _atom_site_fract_z
 _atom_site_occupancy
  Sc  Sc0  1  -0.00000001  0.50000017  0.50000015  1
  Sc  Sc1  1  0.50000012  -0.00000020  -0.00000004  1
  Sc  Sc2  1  0.49999994  -0.00000017  0.50000005  1
  Sc  Sc3  1  0.00000006  0.50000015  0.00000003  1
  H  H4  1  0.65779813  0.49853176  0.70637873  1
  H  H5  1  0.49853219  0.34222122  0.20638547  1
  H  H6  1  0.84220021  0.99853171  0.70637826  1
  H  H7  1  0.99853214  0.15778121  0.20638491  1
  H  H8  1  0.65779863  0.49853196  0.29362145  1
  H  H9  1  0.49853210  0.34221905  0.79361508  1
  H  H10  1  0.84220087  0.99853187  0.29362158  1
  H  H11  1  0.99853216  0.15777943  0.79361462  1
  H  H12  1  0.34220129  0.50146828  0.29362138  1
  H  H13  1  0.50146809  0.65778104  0.79361505  1
  H  H14  1  0.15779892  0.00146820  0.29362160  1
  H  H15  1  0.00146817  0.84221842  0.79361513  1
  H  H16  1  0.34220105  0.50146808  0.70637857  1
  H  H17  1  0.50146820  0.65778294  0.20638451  1
  H  H18  1  0.15779831  0.00146802  0.70637852  1
  H  H19  1  0.00146815  0.84222020  0.20638530  1
  N  N20  1  0.50000076  0.50000016  0.75001219  1
  N  N21  1  0.49999969  0.49999596  0.24998759  1
  N  N22  1  0.00000105  0.00000210  0.75001302  1
  N  N23  1  -0.00000009  -0.00000177  0.24998688  1
  F  F24  1  -0.00000006  0.49999984  0.64936766  1
  F  F25  1  0.50000000  0.00000031  0.14936552  1
  F  F26  1  0.49999973  0.00000009  0.64936759  1
  F  F27  1  0.00000002  0.50000002  0.14936552  1
  F  F28  1  -0.00000008  0.49999989  0.35063236  1
  F  F29  1  0.49999985  0.00000016  0.85063445  1
  F  F30  1  0.49999992  0.00000016  0.35063230  1
  F  F31  1  0.00000010  0.49999986  0.85063445  1
  F  F32  1  0.17139337  0.17101535  0.50000004  1
  F  F33  1  0.17101426  0.82860605  0.00000002  1
  F  F34  1  0.32860670  0.67101522  0.50000002  1
  F  F35  1  0.67101435  0.67139384  0.00000005  1
  F  F36  1  0.82860641  0.82898489  0.49999995  1
  F  F37  1  0.82898569  0.17139404  0.00000003  1
  F  F38  1  0.67139369  0.32898463  0.49999999  1
  F  F39  1  0.32898593  0.32860588  0.00000004  1
