# generated using pymatgen
data_ScH6N2F3
_symmetry_space_group_name_H-M   'P 1'
_cell_length_a   4.09674350
_cell_length_b   5.98839622
_cell_length_c   5.53569834
_cell_angle_alpha   94.01773971
_cell_angle_beta   111.71861292
_cell_angle_gamma   69.99409898
_symmetry_Int_Tables_number   1
_chemical_formula_structural   ScH6N2F3
_chemical_formula_sum   'Sc1 H6 N2 F3'
_cell_volume   118.30418233
_cell_formula_units_Z   1
loop_
 _symmetry_equiv_pos_site_id
 _symmetry_equiv_pos_as_xyz
  1  'x, y, z'
loop_
 _atom_site_type_symbol
 _atom_site_label
 _atom_site_symmetry_multiplicity
 _atom_site_fract_x
 _atom_site_fract_y
 _atom_site_fract_z
 _atom_site_occupancy
  Sc  Sc0  1  0.00001698  0.00000423  -0.00000101  1
  H  H1  1  0.11961217  0.54347259  0.78262036  1
  H  H2  1  0.88037835  0.45652472  0.21737543  1
  H  H3  1  0.12487965  0.72702809  0.57862647  1
  H  H4  1  0.27323474  0.27296853  0.42137252  1
  H  H5  1  0.87511019  0.27297330  0.42136883  1
  H  H6  1  0.72675157  0.72703825  0.57862893  1
  N  N7  1  0.99369718  0.71432985  0.70166073  1
  N  N8  1  0.00629667  0.28566903  0.29833723  1
  F  F9  1  0.27031219  0.75208793  0.29284263  1
  F  F10  1  0.72969190  0.24790487  0.70716647  1
  F  F11  1  0.50001840  -0.00000138  0.00000141  1
