# generated using pymatgen
data_ScH6BrO4
_symmetry_space_group_name_H-M   'P 1'
_cell_length_a   5.67738435
_cell_length_b   7.63561876
_cell_length_c   8.55076186
_cell_angle_alpha   115.91551761
_cell_angle_beta   108.61197774
_cell_angle_gamma   91.63045457
_symmetry_Int_Tables_number   1
_chemical_formula_structural   ScH6BrO4
_chemical_formula_sum   'Sc2 H12 Br2 O8'
_cell_volume   309.77336555
_cell_formula_units_Z   2
loop_
 _symmetry_equiv_pos_site_id
 _symmetry_equiv_pos_as_xyz
  1  'x, y, z'
loop_
 _atom_site_type_symbol
 _atom_site_label
 _atom_site_symmetry_multiplicity
 _atom_site_fract_x
 _atom_site_fract_y
 _atom_site_fract_z
 _atom_site_occupancy
  Sc  Sc0  1  0.19528261  0.94536309  0.89068075  1
  Sc  Sc1  1  0.80471667  0.05463615  0.10931876  1
  H  H2  1  0.46978148  0.32430968  0.13187353  1
  H  H3  1  0.16215325  0.80752807  0.13180298  1
  H  H4  1  0.53021850  0.67569102  0.86812717  1
  H  H5  1  0.83784508  0.19247380  0.86819554  1
  H  H6  1  0.84622266  0.57795707  0.67317672  1
  H  H7  1  0.32699631  0.09520623  0.67310529  1
  H  H8  1  0.15377757  0.42204263  0.32682325  1
  H  H9  1  0.67300443  0.90479353  0.32689466  1
  H  H10  1  0.78570205  0.68167262  0.54584985  1
  H  H11  1  0.26022727  0.86415510  0.54575515  1
  H  H12  1  0.21429789  0.31832660  0.45415018  1
  H  H13  1  0.73977339  0.13584442  0.45424500  1
  Br  Br14  1  0.40628303  0.65633643  0.31264876  1
  Br  Br15  1  0.59371705  0.34366335  0.68735119  1
  O  O16  1  0.49233527  0.18702448  0.07029776  1
  O  O17  1  0.07798207  0.88326205  0.07028271  1
  O  O18  1  0.50766425  0.81297607  0.92970256  1
  O  O19  1  0.92201861  0.11673809  0.92971763  1
  O  O20  1  0.92259013  0.67804637  0.65013353  1
  O  O21  1  0.22767193  0.97207044  0.65010322  1
  O  O22  1  0.07740983  0.32195282  0.34986677  1
  O  O23  1  0.77232866  0.02792990  0.34989702  1
