# generated using pymatgen
data_ScInI4
_symmetry_space_group_name_H-M   'P 1'
_cell_length_a   12.14462544
_cell_length_b   7.53979761
_cell_length_c   13.30523666
_cell_angle_alpha   84.53424427
_cell_angle_beta   90.00001457
_cell_angle_gamma   90.00000168
_symmetry_Int_Tables_number   1
_chemical_formula_structural   ScInI4
_chemical_formula_sum   'Sc4 In4 I16'
_cell_volume   1212.79475486
_cell_formula_units_Z   4
loop_
 _symmetry_equiv_pos_site_id
 _symmetry_equiv_pos_as_xyz
  1  'x, y, z'
loop_
 _atom_site_type_symbol
 _atom_site_label
 _atom_site_symmetry_multiplicity
 _atom_site_fract_x
 _atom_site_fract_y
 _atom_site_fract_z
 _atom_site_occupancy
  Sc  Sc0  1  0.75000001  0.23193242  0.55867209  1
  Sc  Sc1  1  0.24999998  0.76806723  0.44132778  1
  Sc  Sc2  1  0.75000001  0.43419678  0.02799882  1
  Sc  Sc3  1  0.24999999  0.56580335  0.97200125  1
  In  In4  1  0.47745999  0.59529247  0.71502201  1
  In  In5  1  0.52254004  0.40470781  0.28497809  1
  In  In6  1  0.97746016  0.40470792  0.28497825  1
  In  In7  1  0.02253981  0.59529232  0.71502186  1
  I  I8  1  0.75000004  0.12359561  0.36641166  1
  I  I9  1  0.93186232  0.22732412  0.06427457  1
  I  I10  1  0.75000023  0.59200849  0.52210003  1
  I  I11  1  0.43641102  0.86990227  0.33803618  1
  I  I12  1  0.75000000  0.60130800  0.83649818  1
  I  I13  1  0.74999999  0.65391697  0.18114903  1
  I  I14  1  0.56813769  0.22732410  0.06427438  1
  I  I15  1  0.06813771  0.77267609  0.93572547  1
  I  I16  1  0.24999996  0.87640423  0.63358817  1
  I  I17  1  0.56358898  0.13009745  0.66196374  1
  I  I18  1  0.06358895  0.86990257  0.33803615  1
  I  I19  1  0.24999977  0.40799118  0.47789990  1
  I  I20  1  0.25000001  0.39869220  0.16350190  1
  I  I21  1  0.93641103  0.13009714  0.66196376  1
  I  I22  1  0.43186228  0.77267610  0.93572566  1
  I  I23  1  0.25000002  0.34608318  0.81885104  1
