# generated using pymatgen
data_ScTlS2
_symmetry_space_group_name_H-M   'P 1'
_cell_length_a   7.87784726
_cell_length_b   7.87784765
_cell_length_c   15.23776308
_cell_angle_alpha   82.60881027
_cell_angle_beta   82.60882725
_cell_angle_gamma   89.99194825
_symmetry_Int_Tables_number   1
_chemical_formula_structural   ScTlS2
_chemical_formula_sum   'Sc8 Tl8 S16'
_cell_volume   929.88365750
_cell_formula_units_Z   8
loop_
 _symmetry_equiv_pos_site_id
 _symmetry_equiv_pos_as_xyz
  1  'x, y, z'
loop_
 _atom_site_type_symbol
 _atom_site_label
 _atom_site_symmetry_multiplicity
 _atom_site_fract_x
 _atom_site_fract_y
 _atom_site_fract_z
 _atom_site_occupancy
  Sc  Sc0  1  0.41484282  0.28896235  0.34700403  1
  Sc  Sc1  1  0.71103770  0.58515739  0.15299610  1
  Sc  Sc2  1  0.58515673  0.71103765  0.65299558  1
  Sc  Sc3  1  0.28896212  0.41484297  0.84700433  1
  Sc  Sc4  1  0.71112295  0.08932286  0.15341561  1
  Sc  Sc5  1  0.91067725  0.28887711  0.34658438  1
  Sc  Sc6  1  0.28887711  0.91067702  0.84658456  1
  Sc  Sc7  1  0.08932313  0.71112294  0.65341535  1
  Tl  Tl8  1  0.65340301  0.78324968  0.38200390  1
  Tl  Tl9  1  0.21675028  0.34659705  0.11799599  1
  Tl  Tl10  1  0.34659711  0.21675006  0.61799604  1
  Tl  Tl11  1  0.78324972  0.65340269  0.88200404  1
  Tl  Tl12  1  0.22779609  0.84644294  0.12048472  1
  Tl  Tl13  1  0.15355685  0.77220400  0.37951535  1
  Tl  Tl14  1  0.77220390  0.15355692  0.87951528  1
  Tl  Tl15  1  0.84644306  0.22779609  0.62048463  1
  S  S16  1  0.43573326  0.06162684  0.25040248  1
  S  S17  1  0.93837313  0.56426671  0.24959759  1
  S  S18  1  0.56426662  0.93837287  0.74959744  1
  S  S19  1  0.06162718  0.43573359  0.75040241  1
  S  S20  1  0.43610175  0.56389834  0.25000006  1
  S  S21  1  0.56389777  0.43610190  0.74999998  1
  S  S22  1  0.93891502  0.06108497  0.25000001  1
  S  S23  1  0.06108517  0.93891493  0.75000002  1
  S  S24  1  0.72875137  0.86109639  0.05850771  1
  S  S25  1  0.13890360  0.27124863  0.44149236  1
  S  S26  1  0.27124876  0.13890369  0.94149232  1
  S  S27  1  0.86109644  0.72875114  0.55850777  1
  S  S28  1  0.63883104  0.26285594  0.44443883  1
  S  S29  1  0.73714417  0.36116898  0.05556133  1
  S  S30  1  0.36116904  0.73714417  0.55556067  1
  S  S31  1  0.26285585  0.63883118  0.94443910  1
