# generated using pymatgen
data_ScTlSiO4
_symmetry_space_group_name_H-M   'P 1'
_cell_length_a   9.60179555
_cell_length_b   9.60175787
_cell_length_c   9.60176000
_cell_angle_alpha   90.67211564
_cell_angle_beta   90.67213939
_cell_angle_gamma   90.67209990
_symmetry_Int_Tables_number   1
_chemical_formula_structural   ScTlSiO4
_chemical_formula_sum   'Sc6 Tl6 Si6 O24'
_cell_volume   885.04161290
_cell_formula_units_Z   6
loop_
 _symmetry_equiv_pos_site_id
 _symmetry_equiv_pos_as_xyz
  1  'x, y, z'
loop_
 _atom_site_type_symbol
 _atom_site_label
 _atom_site_symmetry_multiplicity
 _atom_site_fract_x
 _atom_site_fract_y
 _atom_site_fract_z
 _atom_site_occupancy
  Sc  Sc0  1  0.50529030  0.75329262  0.98685622  1
  Sc  Sc1  1  0.98685691  0.50528853  0.75329431  1
  Sc  Sc2  1  0.75329310  0.98685680  0.50528949  1
  Sc  Sc3  1  0.00528954  0.48685527  0.25329263  1
  Sc  Sc4  1  0.25329308  0.00529180  0.48685608  1
  Sc  Sc5  1  0.48685609  0.25329440  0.00528924  1
  Tl  Tl6  1  0.34930233  0.65727467  0.33068373  1
  Tl  Tl7  1  0.65727489  0.33068274  0.34930289  1
  Tl  Tl8  1  0.33068270  0.34930188  0.65727489  1
  Tl  Tl9  1  0.15727538  0.84930299  0.83068302  1
  Tl  Tl10  1  0.83068206  0.15727513  0.84930174  1
  Tl  Tl11  1  0.84930199  0.83068307  0.15727449  1
  Si  Si12  1  0.00819972  0.74733986  0.49641056  1
  Si  Si13  1  0.49641170  0.00820136  0.74733968  1
  Si  Si14  1  0.74733970  0.49640956  0.00820085  1
  Si  Si15  1  0.50819825  -0.00358572  0.24733821  1
  Si  Si16  1  0.24734122  0.50819816  -0.00358932  1
  Si  Si17  1  -0.00358883  0.24733946  0.50819937  1
  O  O18  1  0.66012336  0.62913534  0.95106992  1
  O  O19  1  0.95107123  0.66012161  0.62913724  1
  O  O20  1  0.62913523  0.95107241  0.66012325  1
  O  O21  1  0.34568455  0.64064632  0.05266160  1
  O  O22  1  0.06786717  0.64890760  0.36852215  1
  O  O23  1  0.38063648  0.93154779  0.34131689  1
  O  O24  1  0.64890980  0.36852233  0.06786840  1
  O  O25  1  0.93154655  0.34131764  0.38063640  1
  O  O26  1  0.64064623  0.05266066  0.34568287  1
  O  O27  1  0.34131686  0.38063756  0.93154784  1
  O  O28  1  0.05266004  0.34568479  0.64064770  1
  O  O29  1  0.36852271  0.06786810  0.64890872  1
  O  O30  1  0.14890871  0.56786860  0.86852141  1
  O  O31  1  0.43154785  0.88063549  0.84131729  1
  O  O32  1  0.14064533  0.84568270  0.55266077  1
  O  O33  1  0.84131807  0.43154733  0.88063594  1
  O  O34  1  0.55266052  0.14064596  0.84568290  1
  O  O35  1  0.86852138  0.14890759  0.56786826  1
  O  O36  1  0.16012313  0.45106985  0.12913535  1
  O  O37  1  0.45107215  0.12913411  0.16012397  1
  O  O38  1  0.12913387  0.16012504  0.45107193  1
  O  O39  1  0.84568397  0.55266133  0.14064584  1
  O  O40  1  0.56786779  0.86852144  0.14890725  1
  O  O41  1  0.88063687  0.84131584  0.43154804  1
