# generated using pymatgen
data_SmAg5O4
_symmetry_space_group_name_H-M   'P 1'
_cell_length_a   8.77816415
_cell_length_b   6.29973960
_cell_length_c   14.23894286
_cell_angle_alpha   61.82815185
_cell_angle_beta   89.99999962
_cell_angle_gamma   89.99999917
_symmetry_Int_Tables_number   1
_chemical_formula_structural   SmAg5O4
_chemical_formula_sum   'Sm4 Ag20 O16'
_cell_volume   694.13487465
_cell_formula_units_Z   4
loop_
 _symmetry_equiv_pos_site_id
 _symmetry_equiv_pos_as_xyz
  1  'x, y, z'
loop_
 _atom_site_type_symbol
 _atom_site_label
 _atom_site_symmetry_multiplicity
 _atom_site_fract_x
 _atom_site_fract_y
 _atom_site_fract_z
 _atom_site_occupancy
  Sm  Sm0  1  0.37333530  0.16846459  0.37898783  1
  Sm  Sm1  1  0.87333531  0.83153542  0.12101217  1
  Sm  Sm2  1  0.62666470  0.83153541  0.62101217  1
  Sm  Sm3  1  0.12666469  0.16846458  0.87898783  1
  Ag  Ag4  1  0.73994363  0.87665156  0.86884358  1
  Ag  Ag5  1  0.76005635  0.87665159  0.36884356  1
  Ag  Ag6  1  0.50000000  -0.00000000  0.00000000  1
  Ag  Ag7  1  0.00000000  -0.00000000  0.50000000  1
  Ag  Ag8  1  0.12859112  0.63826593  0.34792588  1
  Ag  Ag9  1  0.62859112  0.36173407  0.15207417  1
  Ag  Ag10  1  0.87140888  0.36173407  0.65207412  1
  Ag  Ag11  1  0.37140888  0.63826593  0.84792583  1
  Ag  Ag12  1  0.98885391  0.76596704  0.74316005  1
  Ag  Ag13  1  0.48885392  0.23403300  0.75683998  1
  Ag  Ag14  1  0.01114609  0.23403296  0.25683995  1
  Ag  Ag15  1  0.51114608  0.76596700  0.24316002  1
  Ag  Ag16  1  -0.00000000  0.50000000  0.00000000  1
  Ag  Ag17  1  0.50000000  0.50000000  0.50000000  1
  Ag  Ag18  1  0.25703560  0.62300216  0.12865189  1
  Ag  Ag19  1  0.75703560  0.37699786  0.37134810  1
  Ag  Ag20  1  0.74296440  0.37699784  0.87134811  1
  Ag  Ag21  1  0.24296440  0.62300215  0.62865190  1
  Ag  Ag22  1  0.26005637  0.12334844  0.13115642  1
  Ag  Ag23  1  0.23994365  0.12334841  0.63115644  1
  O  O24  1  0.35414398  -0.00694507  0.88539896  1
  O  O25  1  0.85414399  1.00694503  0.61460105  1
  O  O26  1  0.64585602  1.00694507  0.11460104  1
  O  O27  1  0.14585602  -0.00694503  0.38539895  1
  O  O28  1  0.89156023  0.69696700  0.30364081  1
  O  O29  1  0.39156022  0.30303299  0.19635919  1
  O  O30  1  0.12319394  0.94331778  0.06930458  1
  O  O31  1  0.62319395  0.05668224  0.43069541  1
  O  O32  1  0.87680605  0.05668222  0.93069542  1
  O  O33  1  0.37680605  0.94331776  0.56930459  1
  O  O34  1  0.13432468  0.53426879  0.87147064  1
  O  O35  1  0.63432468  0.46573119  0.62852936  1
  O  O36  1  0.86567532  0.46573121  0.12852936  1
  O  O37  1  0.36567533  0.53426880  0.37147064  1
  O  O38  1  0.10843977  0.30303300  0.69635919  1
  O  O39  1  0.60843978  0.69696701  0.80364081  1
