# generated using pymatgen
data_SnPdF6
_symmetry_space_group_name_H-M   'P 1'
_cell_length_a   5.30578333
_cell_length_b   5.29332667
_cell_length_c   5.76693385
_cell_angle_alpha   62.78325274
_cell_angle_beta   89.81634285
_cell_angle_gamma   59.93554433
_symmetry_Int_Tables_number   1
_chemical_formula_structural   SnPdF6
_chemical_formula_sum   'Sn1 Pd1 F6'
_cell_volume   119.16403413
_cell_formula_units_Z   1
loop_
 _symmetry_equiv_pos_site_id
 _symmetry_equiv_pos_as_xyz
  1  'x, y, z'
loop_
 _atom_site_type_symbol
 _atom_site_label
 _atom_site_symmetry_multiplicity
 _atom_site_fract_x
 _atom_site_fract_y
 _atom_site_fract_z
 _atom_site_occupancy
  Sn  Sn0  1  0.49999996  0.00000010  0.49999994  1
  Pd  Pd1  1  0.00000001  -0.00000002  0.00000003  1
  F  F2  1  0.59583217  0.52439749  0.73934156  1
  F  F3  1  0.40416783  0.47560246  0.26065843  1
  F  F4  1  0.73789441  0.85499717  0.26230785  1
  F  F5  1  0.26210559  0.14500285  0.73769216  1
  F  F6  1  0.12024026  0.14064452  0.26422320  1
  F  F7  1  0.87975979  0.85935543  0.73577682  1
