# generated using pymatgen
data_Sr5As3BrO12
_symmetry_space_group_name_H-M   'P 1'
_cell_length_a   10.54602090
_cell_length_b   10.54604486
_cell_length_c   7.31231758
_cell_angle_alpha   90.00000128
_cell_angle_beta   90.00000040
_cell_angle_gamma   120.00030836
_symmetry_Int_Tables_number   1
_chemical_formula_structural   Sr5As3BrO12
_chemical_formula_sum   'Sr10 As6 Br2 O24'
_cell_volume   704.30791494
_cell_formula_units_Z   2
loop_
 _symmetry_equiv_pos_site_id
 _symmetry_equiv_pos_as_xyz
  1  'x, y, z'
loop_
 _atom_site_type_symbol
 _atom_site_label
 _atom_site_symmetry_multiplicity
 _atom_site_fract_x
 _atom_site_fract_y
 _atom_site_fract_z
 _atom_site_occupancy
  Sr  Sr0  1  0.25244382  0.26417021  0.25000000  1
  Sr  Sr1  1  0.74755617  0.73582977  0.75000000  1
  Sr  Sr2  1  0.73583288  0.98827384  0.25000000  1
  Sr  Sr3  1  0.26416710  0.01172614  0.74999998  1
  Sr  Sr4  1  0.01172516  0.74755854  0.25000002  1
  Sr  Sr5  1  0.98827483  0.25244146  0.75000000  1
  Sr  Sr6  1  0.33333498  0.66666517  0.99695132  1
  Sr  Sr7  1  0.66666505  0.33333484  0.00304870  1
  Sr  Sr8  1  0.66666502  0.33333480  0.49695128  1
  Sr  Sr9  1  0.33333497  0.66666516  0.50304870  1
  As  As10  1  0.03312341  0.41019815  0.24999999  1
  As  As11  1  0.96687666  0.58980187  0.75000002  1
  As  As12  1  0.58980110  0.62292358  0.25000001  1
  As  As13  1  0.41019890  0.37707646  0.75000000  1
  As  As14  1  0.37707340  0.96687795  0.25000000  1
  As  As15  1  0.62292655  0.03312201  0.75000000  1
  Br  Br16  1  -0.00000001  -0.00000001  -0.00000003  1
  Br  Br17  1  -0.00000001  0.00000001  0.50000000  1
  O  O18  1  0.49753330  0.15215193  0.25000000  1
  O  O19  1  0.50246672  0.84784814  0.74999999  1
  O  O20  1  0.84784842  0.34538475  0.24999999  1
  O  O21  1  0.15215154  0.65461522  0.75000001  1
  O  O22  1  0.65462830  0.50244385  0.25000000  1
  O  O23  1  0.34537179  0.49755614  0.75000002  1
  O  O24  1  0.13322295  0.60018532  0.25000003  1
  O  O25  1  0.86677703  0.39981467  0.74999996  1
  O  O26  1  0.39978138  0.53301782  0.24999999  1
  O  O27  1  0.60021861  0.46698212  0.75000002  1
  O  O28  1  0.46696588  0.86677818  0.24999999  1
  O  O29  1  0.53303414  0.13322186  0.75000003  1
  O  O30  1  0.09283339  0.35640083  0.06176052  1
  O  O31  1  0.90716659  0.64359916  0.93823950  1
  O  O32  1  0.64361172  0.73645202  0.06172710  1
  O  O33  1  0.90716659  0.64359919  0.56176051  1
  O  O34  1  0.35638828  0.26354798  0.93827289  1
  O  O35  1  0.09283340  0.35640082  0.43823947  1
  O  O36  1  0.26356641  0.90716686  0.06176113  1
  O  O37  1  0.35638833  0.26354802  0.56172706  1
  O  O38  1  0.73643356  0.09283316  0.93823885  1
  O  O39  1  0.64361169  0.73645199  0.43827295  1
  O  O40  1  0.73643355  0.09283318  0.56176116  1
  O  O41  1  0.26356642  0.90716683  0.43823884  1
