# generated using pymatgen
data_SrAg2GeS4
_symmetry_space_group_name_H-M   'P 1'
_cell_length_a   6.18418694
_cell_length_b   6.18399913
_cell_length_c   10.31369792
_cell_angle_alpha   90.00021747
_cell_angle_beta   90.00042421
_cell_angle_gamma   110.84654644
_symmetry_Int_Tables_number   1
_chemical_formula_structural   SrAg2GeS4
_chemical_formula_sum   'Sr2 Ag4 Ge2 S8'
_cell_volume   368.60640944
_cell_formula_units_Z   2
loop_
 _symmetry_equiv_pos_site_id
 _symmetry_equiv_pos_as_xyz
  1  'x, y, z'
loop_
 _atom_site_type_symbol
 _atom_site_label
 _atom_site_symmetry_multiplicity
 _atom_site_fract_x
 _atom_site_fract_y
 _atom_site_fract_z
 _atom_site_occupancy
  Sr  Sr0  1  0.01231349  0.01232759  -0.00001515  1
  Sr  Sr1  1  0.01231977  0.01232479  0.50001198  1
  Ag  Ag2  1  0.60665819  0.38016610  0.89621387  1
  Ag  Ag3  1  0.60667675  0.38017441  0.60379655  1
  Ag  Ag4  1  0.38015775  0.60666596  0.39621001  1
  Ag  Ag5  1  0.38016947  0.60667696  0.10379399  1
  Ge  Ge6  1  0.29442236  0.72711424  0.74999838  1
  Ge  Ge7  1  0.72715294  0.29444405  0.24999905  1
  S  S8  1  0.47601364  0.90946958  0.92926857  1
  S  S9  1  0.93936537  0.74043660  0.74999756  1
  S  S10  1  0.26601886  0.35356091  0.74999935  1
  S  S11  1  0.47601627  0.90947298  0.57073269  1
  S  S12  1  0.90946294  0.47599833  0.42926061  1
  S  S13  1  0.74043985  0.93935053  0.24999848  1
  S  S14  1  0.35353774  0.26600952  0.24999820  1
  S  S15  1  0.90946358  0.47599644  0.07073687  1
