# generated using pymatgen
data_SrAsHO4
_symmetry_space_group_name_H-M   'P 1'
_cell_length_a   6.25599114
_cell_length_b   4.93003064
_cell_length_c   5.97535983
_cell_angle_alpha   88.58288111
_cell_angle_beta   90.00001230
_cell_angle_gamma   89.99988461
_symmetry_Int_Tables_number   1
_chemical_formula_structural   SrAsHO4
_chemical_formula_sum   'Sr2 As2 H2 O8'
_cell_volume   184.23704323
_cell_formula_units_Z   2
loop_
 _symmetry_equiv_pos_site_id
 _symmetry_equiv_pos_as_xyz
  1  'x, y, z'
loop_
 _atom_site_type_symbol
 _atom_site_label
 _atom_site_symmetry_multiplicity
 _atom_site_fract_x
 _atom_site_fract_y
 _atom_site_fract_z
 _atom_site_occupancy
  Sr  Sr0  1  0.23694521  -0.00308486  0.24701902  1
  Sr  Sr1  1  0.76305489  -0.00308480  0.74701889  1
  As  As2  1  0.78625141  0.50839292  0.25652774  1
  As  As3  1  0.21374750  0.50839399  0.75652583  1
  H  H4  1  0.51201734  0.47553365  0.01102672  1
  H  H5  1  0.48798288  0.47553422  0.51102657  1
  O  O6  1  0.91557737  0.25891613  0.40218318  1
  O  O7  1  0.91888501  0.73683038  0.09050754  1
  O  O8  1  0.08111528  0.73682989  0.59050814  1
  O  O9  1  0.08442232  0.25891520  0.90218378  1
  O  O10  1  0.60806413  0.31606993  0.08324453  1
  O  O11  1  0.61074371  0.69134189  0.42149015  1
  O  O12  1  0.38925723  0.69134259  0.92149120  1
  O  O13  1  0.39193574  0.31606888  0.58324471  1
