# generated using pymatgen
data_TaCl2F3
_symmetry_space_group_name_H-M   'P 1'
_cell_length_a   9.02362877
_cell_length_b   9.02355896
_cell_length_c   6.64741445
_cell_angle_alpha   89.99713178
_cell_angle_beta   89.99896598
_cell_angle_gamma   89.99911651
_symmetry_Int_Tables_number   1
_chemical_formula_structural   TaCl2F3
_chemical_formula_sum   'Ta4 Cl8 F12'
_cell_volume   541.26735803
_cell_formula_units_Z   4
loop_
 _symmetry_equiv_pos_site_id
 _symmetry_equiv_pos_as_xyz
  1  'x, y, z'
loop_
 _atom_site_type_symbol
 _atom_site_label
 _atom_site_symmetry_multiplicity
 _atom_site_fract_x
 _atom_site_fract_y
 _atom_site_fract_z
 _atom_site_occupancy
  Ta  Ta0  1  0.49999718  -0.00000451  0.72020828  1
  Ta  Ta1  1  0.00000290  0.50000452  0.27978997  1
  Ta  Ta2  1  0.49999810  0.50000029  -0.00000073  1
  Ta  Ta3  1  0.00000203  -0.00000020  0.00000362  1
  Cl  Cl4  1  0.45856248  0.69317953  0.19806730  1
  Cl  Cl5  1  0.19317840  0.04143886  0.19806551  1
  Cl  Cl6  1  0.69318013  0.54143792  0.80193553  1
  Cl  Cl7  1  0.04143770  0.80682015  0.80193274  1
  Cl  Cl8  1  0.95856197  0.19317967  0.80193507  1
  Cl  Cl9  1  0.30682121  0.45856111  0.80193450  1
  Cl  Cl10  1  0.54143785  0.30682060  0.19806500  1
  Cl  Cl11  1  0.80682014  0.95856209  0.19806460  1
  F  F12  1  0.49999717  -0.00000533  0.43249193  1
  F  F13  1  0.00000282  0.50000533  0.56750581  1
  F  F14  1  0.44611040  0.79245234  0.72368124  1
  F  F15  1  0.29245055  0.05388495  0.72369370  1
  F  F16  1  0.70755042  0.94611682  0.72369382  1
  F  F17  1  0.55388812  0.20754876  0.72370623  1
  F  F18  1  0.05388940  0.70754760  0.27631964  1
  F  F19  1  0.20754949  0.44611517  0.27630717  1
  F  F20  1  0.79244946  0.55388307  0.27630705  1
  F  F21  1  -0.00000319  0.49999208  -0.00796229  1
  F  F22  1  0.50000320  0.00000791  0.00795966  1
  F  F23  1  0.94611206  0.29245125  0.27629465  1
