# generated using pymatgen
data_Ti2BiS4
_symmetry_space_group_name_H-M   'P 1'
_cell_length_a   7.69594877
_cell_length_b   7.69596628
_cell_length_c   12.50079703
_cell_angle_alpha   89.99999943
_cell_angle_beta   90.00000045
_cell_angle_gamma   89.99999032
_symmetry_Int_Tables_number   1
_chemical_formula_structural   Ti2BiS4
_chemical_formula_sum   'Ti8 Bi4 S16'
_cell_volume   740.39423413
_cell_formula_units_Z   4
loop_
 _symmetry_equiv_pos_site_id
 _symmetry_equiv_pos_as_xyz
  1  'x, y, z'
loop_
 _atom_site_type_symbol
 _atom_site_label
 _atom_site_symmetry_multiplicity
 _atom_site_fract_x
 _atom_site_fract_y
 _atom_site_fract_z
 _atom_site_occupancy
  Ti  Ti0  1  -0.00000001  0.50000000  0.75000026  1
  Ti  Ti1  1  -0.00000001  0.50000000  0.00000005  1
  Ti  Ti2  1  0.00000000  0.50000000  0.24999968  1
  Ti  Ti3  1  0.50000001  -0.00000000  0.49999981  1
  Ti  Ti4  1  0.50000000  0.00000000  0.24999993  1
  Ti  Ti5  1  0.50000000  -0.00000000  0.75000013  1
  Ti  Ti6  1  0.00000000  0.50000000  0.50000000  1
  Ti  Ti7  1  0.49999999  0.00000000  0.00000015  1
  Bi  Bi8  1  0.50000000  0.50000000  0.62571472  1
  Bi  Bi9  1  -0.00000000  -0.00000000  0.87428533  1
  Bi  Bi10  1  0.50000000  0.50000000  0.37428524  1
  Bi  Bi11  1  -0.00000000  0.00000000  0.12571475  1
  S  S12  1  0.84191346  0.33415502  0.87472811  1
  S  S13  1  0.65808630  0.83415516  0.37473058  1
  S  S14  1  0.33415506  0.84191349  0.12526969  1
  S  S15  1  0.83415527  0.65808653  0.62527134  1
  S  S16  1  0.34191370  0.16584484  0.37473059  1
  S  S17  1  0.15808654  0.66584498  0.87472811  1
  S  S18  1  0.83415521  0.34191332  0.37472849  1
  S  S19  1  0.66584493  0.15808651  0.12526969  1
  S  S20  1  0.65808641  0.16584487  0.62526980  1
  S  S21  1  0.16584473  0.34191347  0.62527135  1
  S  S22  1  0.66584488  0.84191345  0.87472990  1
  S  S23  1  0.33415512  0.15808655  0.87472989  1
  S  S24  1  0.16584480  0.65808668  0.37472849  1
  S  S25  1  0.15808663  0.33415505  0.12527205  1
  S  S26  1  0.84191337  0.66584495  0.12527207  1
  S  S27  1  0.34191359  0.83415513  0.62526980  1
