# generated using pymatgen
data_Ti2BiSe4
_symmetry_space_group_name_H-M   'P 1'
_cell_length_a   7.98892690
_cell_length_b   7.98896596
_cell_length_c   12.96563804
_cell_angle_alpha   89.99999996
_cell_angle_beta   90.00000012
_cell_angle_gamma   90.00000072
_symmetry_Int_Tables_number   1
_chemical_formula_structural   Ti2BiSe4
_chemical_formula_sum   'Ti8 Bi4 Se16'
_cell_volume   827.50935331
_cell_formula_units_Z   4
loop_
 _symmetry_equiv_pos_site_id
 _symmetry_equiv_pos_as_xyz
  1  'x, y, z'
loop_
 _atom_site_type_symbol
 _atom_site_label
 _atom_site_symmetry_multiplicity
 _atom_site_fract_x
 _atom_site_fract_y
 _atom_site_fract_z
 _atom_site_occupancy
  Ti  Ti0  1  0.00000000  0.50000000  0.75000016  1
  Ti  Ti1  1  -0.00000000  0.50000000  -0.00000003  1
  Ti  Ti2  1  0.00000000  0.50000000  0.24999981  1
  Ti  Ti3  1  0.50000000  -0.00000000  0.49999981  1
  Ti  Ti4  1  0.50000000  0.00000000  0.24999988  1
  Ti  Ti5  1  0.50000000  -0.00000000  0.75000012  1
  Ti  Ti6  1  0.00000000  0.50000000  0.50000000  1
  Ti  Ti7  1  0.50000000  0.00000000  0.00000021  1
  Bi  Bi8  1  -0.00000000  -0.00000000  0.87892399  1
  Bi  Bi9  1  0.50000000  0.50000000  0.62107599  1
  Bi  Bi10  1  0.50000000  0.50000000  0.37892425  1
  Bi  Bi11  1  0.00000000  0.00000000  0.12107578  1
  Se  Se12  1  0.33247750  0.16753147  0.87487126  1
  Se  Se13  1  0.33246961  0.16752157  0.37487202  1
  Se  Se14  1  0.83247840  0.33246912  0.37487332  1
  Se  Se15  1  0.66752250  0.83246852  0.87487126  1
  Se  Se16  1  0.33246887  0.83247732  0.62512877  1
  Se  Se17  1  0.16753090  0.33247780  0.12512741  1
  Se  Se18  1  0.33247862  0.83246926  0.12512796  1
  Se  Se19  1  0.83246909  0.33247752  0.87487304  1
  Se  Se20  1  0.83246910  0.66752220  0.12512741  1
  Se  Se21  1  0.66753113  0.16752268  0.62512877  1
  Se  Se22  1  0.16753092  0.66752249  0.87487304  1
  Se  Se23  1  0.66753039  0.83247843  0.37487202  1
  Se  Se24  1  0.16752160  0.66753088  0.37487332  1
  Se  Se25  1  0.83247810  0.66753089  0.62512622  1
  Se  Se26  1  0.16752190  0.33246911  0.62512622  1
  Se  Se27  1  0.66752138  0.16753074  0.12512796  1
