# generated using pymatgen
data_Ti2CdSe4
_symmetry_space_group_name_H-M   'P 1'
_cell_length_a   5.94826659
_cell_length_b   5.94827108
_cell_length_c   7.05386648
_cell_angle_alpha   114.93812177
_cell_angle_beta   114.93869399
_cell_angle_gamma   89.99950047
_symmetry_Int_Tables_number   1
_chemical_formula_structural   Ti2CdSe4
_chemical_formula_sum   'Ti2 Cd1 Se4'
_cell_volume   200.35416446
_cell_formula_units_Z   1
loop_
 _symmetry_equiv_pos_site_id
 _symmetry_equiv_pos_as_xyz
  1  'x, y, z'
loop_
 _atom_site_type_symbol
 _atom_site_label
 _atom_site_symmetry_multiplicity
 _atom_site_fract_x
 _atom_site_fract_y
 _atom_site_fract_z
 _atom_site_occupancy
  Ti  Ti0  1  0.24999998  0.74999903  0.50000048  1
  Ti  Ti1  1  0.49999817  0.49999788  0.00000074  1
  Cd  Cd2  1  -0.00000072  -0.00000329  0.00000068  1
  Se  Se3  1  0.86877788  0.86550774  0.26568421  1
  Se  Se4  1  0.39690862  0.40017893  0.26568145  1
  Se  Se5  1  0.13449470  0.60309137  0.73431232  1
  Se  Se6  1  0.59982338  0.13122634  0.73432011  1
