# generated using pymatgen
data_Ti2PbS4
_symmetry_space_group_name_H-M   'P 1'
_cell_length_a   6.11209485
_cell_length_b   6.11200728
_cell_length_c   10.51777705
_cell_angle_alpha   89.99999863
_cell_angle_beta   89.99999791
_cell_angle_gamma   118.69713808
_symmetry_Int_Tables_number   1
_chemical_formula_structural   Ti2PbS4
_chemical_formula_sum   'Ti4 Pb2 S8'
_cell_volume   344.65275386
_cell_formula_units_Z   2
loop_
 _symmetry_equiv_pos_site_id
 _symmetry_equiv_pos_as_xyz
  1  'x, y, z'
loop_
 _atom_site_type_symbol
 _atom_site_label
 _atom_site_symmetry_multiplicity
 _atom_site_fract_x
 _atom_site_fract_y
 _atom_site_fract_z
 _atom_site_occupancy
  Ti  Ti0  1  0.76099690  0.24039713  0.49999996  1
  Ti  Ti1  1  0.23900316  0.75960215  0.49999994  1
  Ti  Ti2  1  0.75960780  0.23899552  0.00000004  1
  Ti  Ti3  1  0.24039245  0.76100496  0.00000006  1
  Pb  Pb4  1  0.50000007  0.50000026  0.74999996  1
  Pb  Pb5  1  0.50000010  0.50000025  0.25000004  1
  S  S6  1  0.35241277  0.18552250  0.50000003  1
  S  S7  1  0.64758718  0.81447691  0.50000002  1
  S  S8  1  0.81447506  0.64758271  -0.00000002  1
  S  S9  1  0.18552569  0.35241888  -0.00000003  1
  S  S10  1  0.49999956  -0.00000001  0.83267058  1
  S  S11  1  -0.00000015  0.49999938  0.66733031  1
  S  S12  1  0.49999956  -0.00000000  0.16732948  1
  S  S13  1  -0.00000015  0.49999938  0.33266963  1
