# generated using pymatgen
data_Ti2SO6
_symmetry_space_group_name_H-M   'P 1'
_cell_length_a   3.73844264
_cell_length_b   5.14687059
_cell_length_c   11.55156279
_cell_angle_alpha   90.00258958
_cell_angle_beta   89.99974818
_cell_angle_gamma   90.01471754
_symmetry_Int_Tables_number   1
_chemical_formula_structural   Ti2SO6
_chemical_formula_sum   'Ti4 S2 O12'
_cell_volume   222.26685187
_cell_formula_units_Z   2
loop_
 _symmetry_equiv_pos_site_id
 _symmetry_equiv_pos_as_xyz
  1  'x, y, z'
loop_
 _atom_site_type_symbol
 _atom_site_label
 _atom_site_symmetry_multiplicity
 _atom_site_fract_x
 _atom_site_fract_y
 _atom_site_fract_z
 _atom_site_occupancy
  Ti  Ti0  1  0.76113624  0.24455432  0.74049227  1
  Ti  Ti1  1  0.76097764  0.75545476  0.25950134  1
  Ti  Ti2  1  0.23903095  0.74454117  0.75953098  1
  Ti  Ti3  1  0.23889087  0.25540955  0.24046499  1
  S  S4  1  -0.00509921  0.00000348  -0.00001334  1
  S  S5  1  0.00508854  0.49998826  0.50000917  1
  O  O6  1  0.77605756  0.14870239  0.91580162  1
  O  O7  1  0.77596709  0.85125768  0.08420384  1
  O  O8  1  0.22393579  0.64868934  0.58415930  1
  O  O9  1  0.22385725  0.35138606  0.41583078  1
  O  O10  1  0.73478702  0.61026448  0.76945092  1
  O  O11  1  0.73494302  0.38970714  0.23055579  1
  O  O12  1  -0.21506402  0.69200526  0.43473535  1
  O  O13  1  -0.21514383  0.30801246  0.56525807  1
  O  O14  1  0.21525593  0.19206754  0.06531224  1
  O  O15  1  0.21514749  0.80794437  0.93468940  1
  O  O16  1  0.26518992  0.88973405  0.26946175  1
  O  O17  1  0.26504177  0.11027768  0.73055550  1
