# generated using pymatgen
data_Ti2SiO5
_symmetry_space_group_name_H-M   'P 1'
_cell_length_a   5.80075885
_cell_length_b   7.57911406
_cell_length_c   8.28568259
_cell_angle_alpha   105.45237612
_cell_angle_beta   90.67471171
_cell_angle_gamma   101.22728669
_symmetry_Int_Tables_number   1
_chemical_formula_structural   Ti2SiO5
_chemical_formula_sum   'Ti8 Si4 O20'
_cell_volume   343.60827090
_cell_formula_units_Z   4
loop_
 _symmetry_equiv_pos_site_id
 _symmetry_equiv_pos_as_xyz
  1  'x, y, z'
loop_
 _atom_site_type_symbol
 _atom_site_label
 _atom_site_symmetry_multiplicity
 _atom_site_fract_x
 _atom_site_fract_y
 _atom_site_fract_z
 _atom_site_occupancy
  Ti  Ti0  1  0.85500523  0.90014544  0.09230111  1
  Ti  Ti1  1  0.14498782  0.09985110  0.90770377  1
  Ti  Ti2  1  0.35571723  0.91912518  0.62529480  1
  Ti  Ti3  1  0.64427937  0.08087290  0.37470192  1
  Ti  Ti4  1  0.03317853  0.69770317  0.29836151  1
  Ti  Ti5  1  0.96680895  0.30229836  0.70163435  1
  Ti  Ti6  1  0.54865495  0.68313227  0.30230356  1
  Ti  Ti7  1  0.45134603  0.31686936  0.69769283  1
  Si  Si8  1  0.80991705  0.70591634  0.66483697  1
  Si  Si9  1  0.19008060  0.29408776  0.33516282  1
  Si  Si10  1  0.30210553  0.70761147  0.94076995  1
  Si  Si11  1  0.69789002  0.29238624  0.05922935  1
  O  O12  1  0.25312245  0.51278954  0.78616703  1
  O  O13  1  0.74687431  0.48720750  0.21383237  1
  O  O14  1  0.75773430  0.50688641  0.71713647  1
  O  O15  1  0.24226306  0.49311642  0.28286406  1
  O  O16  1  0.53426332  0.71572443  0.06027103  1
  O  O17  1  0.46573291  0.28427294  0.93972746  1
  O  O18  1  0.57846746  0.71739676  0.55286170  1
  O  O19  1  0.42152818  0.28260448  0.44713888  1
  O  O20  1  0.35167101  0.88609056  0.36925658  1
  O  O21  1  0.64832345  0.11390784  0.63074357  1
  O  O22  1  0.33453445  0.88458974  0.85734453  1
  O  O23  1  0.66545991  0.11540753  0.14265410  1
  O  O24  1  0.13988496  0.11923919  0.16184781  1
  O  O25  1  0.86011053  0.88076125  0.83815426  1
  O  O26  1  0.15834696  0.10688206  0.66112982  1
  O  O27  1  0.84165340  0.89312509  0.33887854  1
  O  O28  1  0.95870785  0.28162789  0.44901813  1
  O  O29  1  0.04128818  0.71837380  0.55098217  1
  O  O30  1  0.92271647  0.28246790  0.93977919  1
  O  O31  1  0.07727967  0.71752908  0.06021936  1
