# generated using pymatgen
data_Ti4Bi2O9
_symmetry_space_group_name_H-M   'P 1'
_cell_length_a   6.05551592
_cell_length_b   8.08272054
_cell_length_c   8.77159603
_cell_angle_alpha   89.99933830
_cell_angle_beta   89.99999097
_cell_angle_gamma   90.00000454
_symmetry_Int_Tables_number   1
_chemical_formula_structural   Ti4Bi2O9
_chemical_formula_sum   'Ti8 Bi4 O18'
_cell_volume   429.32614404
_cell_formula_units_Z   2
loop_
 _symmetry_equiv_pos_site_id
 _symmetry_equiv_pos_as_xyz
  1  'x, y, z'
loop_
 _atom_site_type_symbol
 _atom_site_label
 _atom_site_symmetry_multiplicity
 _atom_site_fract_x
 _atom_site_fract_y
 _atom_site_fract_z
 _atom_site_occupancy
  Ti  Ti0  1  0.50000395  0.13968431  0.83475110  1
  Ti  Ti1  1  0.50000363  0.86031590  0.16524887  1
  Ti  Ti2  1  0.50000382  0.63968481  0.66525881  1
  Ti  Ti3  1  0.50000413  0.36031487  0.33474095  1
  Ti  Ti4  1  0.24418096  0.00000014  0.50000001  1
  Ti  Ti5  1  0.75581865  0.49999990  0.00000019  1
  Ti  Ti6  1  0.75582109  0.00000008  0.50000005  1
  Ti  Ti7  1  0.24418528  0.49999969  0.00000015  1
  Bi  Bi8  1  0.00000071  0.38578556  0.63311445  1
  Bi  Bi9  1  0.00000076  0.61421437  0.36688559  1
  Bi  Bi10  1  0.00000017  0.88578659  0.86688019  1
  Bi  Bi11  1  -0.00000006  0.11421340  0.13311981  1
  O  O12  1  -0.00000880  0.34560535  0.96758282  1
  O  O13  1  -0.00000842  0.65439466  0.03241712  1
  O  O14  1  -0.00000860  0.84560650  0.53241337  1
  O  O15  1  -0.00000881  0.15439346  0.46758658  1
  O  O16  1  0.50000534  0.34808589  0.92848992  1
  O  O17  1  0.50000507  0.65191426  0.07151020  1
  O  O18  1  0.50000209  0.84808090  0.57150468  1
  O  O19  1  0.50000229  0.15191853  0.42849566  1
  O  O20  1  0.26174161  0.90944272  0.28562393  1
  O  O21  1  0.26174149  0.09055757  0.71437565  1
  O  O22  1  0.73824638  0.40943043  0.21437291  1
  O  O23  1  0.73824549  0.59057028  0.78562676  1
  O  O24  1  0.50000095  -0.00000024  0.00000029  1
  O  O25  1  0.50000584  0.50000070  0.50000086  1
  O  O26  1  0.26175199  0.40942919  0.21437944  1
  O  O27  1  0.26175253  0.59057057  0.78561973  1
  O  O28  1  0.73825500  0.90944422  0.28562824  1
  O  O29  1  0.73825549  0.09055540  0.71437168  1
