# generated using pymatgen
data_Ti5BO9
_symmetry_space_group_name_H-M   'P 1'
_cell_length_a   8.54915580
_cell_length_b   8.54915787
_cell_length_c   8.25755548
_cell_angle_alpha   89.99767042
_cell_angle_beta   90.00232660
_cell_angle_gamma   138.31251187
_symmetry_Int_Tables_number   1
_chemical_formula_structural   Ti5BO9
_chemical_formula_sum   'Ti10 B2 O18'
_cell_volume   401.38732931
_cell_formula_units_Z   2
loop_
 _symmetry_equiv_pos_site_id
 _symmetry_equiv_pos_as_xyz
  1  'x, y, z'
loop_
 _atom_site_type_symbol
 _atom_site_label
 _atom_site_symmetry_multiplicity
 _atom_site_fract_x
 _atom_site_fract_y
 _atom_site_fract_z
 _atom_site_occupancy
  Ti  Ti0  1  0.37732890  0.15719405  0.49252315  1
  Ti  Ti1  1  0.29601296  0.70398501  0.33024555  1
  Ti  Ti2  1  0.70398973  0.29600892  0.83023473  1
  Ti  Ti3  1  0.56572380  0.43427571  0.20856743  1
  Ti  Ti4  1  0.43427620  0.56572471  0.70857170  1
  Ti  Ti5  1  0.74403717  0.25596066  0.16345788  1
  Ti  Ti6  1  0.25596355  0.74403454  0.66346280  1
  Ti  Ti7  1  0.15719462  0.37732327  0.99252128  1
  Ti  Ti8  1  0.84280616  0.62267175  0.49252398  1
  Ti  Ti9  1  0.62267733  0.84280570  0.99252143  1
  B  B10  1  0.98878788  0.01121363  0.72489676  1
  B  B11  1  0.01120332  0.98879697  0.22487787  1
  O  O12  1  0.19015148  0.80984756  0.43188021  1
  O  O13  1  0.95458937  0.04541130  0.10239551  1
  O  O14  1  0.04541893  0.95458187  0.60237658  1
  O  O15  1  0.45980107  0.54019901  0.09128663  1
  O  O16  1  0.54019684  0.45980294  0.59127576  1
  O  O17  1  0.67799217  0.32201250  0.36690937  1
  O  O18  1  0.32200947  0.67799315  0.86692495  1
  O  O19  1  0.84664482  0.76119966  0.28863955  1
  O  O20  1  0.80985103  0.19014809  0.93188523  1
  O  O21  1  0.64104360  0.35895192  0.02785654  1
  O  O22  1  0.76120262  0.84664679  0.78863722  1
  O  O23  1  0.23880092  0.15335543  0.28863971  1
  O  O24  1  0.15335450  0.23879900  0.78863707  1
  O  O25  1  0.45170939  0.07013323  0.69449148  1
  O  O26  1  0.07012639  0.45171386  0.19449603  1
  O  O27  1  0.54828582  0.92987178  0.19449610  1
  O  O28  1  0.92986664  0.54829132  0.69449287  1
  O  O29  1  0.35895330  0.64104569  0.52786661  1
