# generated using pymatgen
data_Ti6Cd4SO12
_symmetry_space_group_name_H-M   'P 1'
_cell_length_a   8.73015528
_cell_length_b   8.73016336
_cell_length_c   8.73015926
_cell_angle_alpha   109.47145031
_cell_angle_beta   109.47164451
_cell_angle_gamma   109.47131285
_symmetry_Int_Tables_number   1
_chemical_formula_structural   Ti6Cd4SO12
_chemical_formula_sum   'Ti6 Cd4 S1 O12'
_cell_volume   512.20122998
_cell_formula_units_Z   1
loop_
 _symmetry_equiv_pos_site_id
 _symmetry_equiv_pos_as_xyz
  1  'x, y, z'
loop_
 _atom_site_type_symbol
 _atom_site_label
 _atom_site_symmetry_multiplicity
 _atom_site_fract_x
 _atom_site_fract_y
 _atom_site_fract_z
 _atom_site_occupancy
  Ti  Ti0  1  0.24999871  0.50000187  0.74999522  1
  Ti  Ti1  1  0.75000669  0.50000269  0.25000691  1
  Ti  Ti2  1  0.25000509  0.75000119  0.50000049  1
  Ti  Ti3  1  0.74999664  0.25000199  0.50000193  1
  Ti  Ti4  1  0.49999876  0.24999261  0.74999265  1
  Ti  Ti5  1  0.50000292  0.75000693  0.25000927  1
  Cd  Cd6  1  0.00000438  0.30620894  0.00000310  1
  Cd  Cd7  1  0.30620564  0.00000623  -0.00000312  1
  Cd  Cd8  1  0.69379004  0.69378782  0.69379302  1
  Cd  Cd9  1  -0.00000704  -0.00000794  0.30619967  1
  S  S10  1  -0.00000215  -0.00000444  -0.00000064  1
  O  O11  1  -0.00000655  0.62190768  0.33040594  1
  O  O12  1  0.37808803  0.37808010  0.70849321  1
  O  O13  1  -0.00000378  0.33040119  0.62190872  1
  O  O14  1  0.33040306  0.00000119  0.62190874  1
  O  O15  1  0.66959680  0.29151452  0.66960115  1
  O  O16  1  0.29151416  0.66959984  0.66959305  1
  O  O17  1  0.66959299  0.66958456  0.29150842  1
  O  O18  1  0.62191629  0.33041520  0.00000435  1
  O  O19  1  0.33040996  0.62191637  0.00000414  1
  O  O20  1  0.37808920  0.70849256  0.37809347  1
  O  O21  1  0.62190609  -0.00000315  0.33039826  1
  O  O22  1  0.70849406  0.37809207  0.37808203  1
