# generated using pymatgen
data_TiAg2HgS4
_symmetry_space_group_name_H-M   'P 1'
_cell_length_a   6.78491964
_cell_length_b   7.05570200
_cell_length_c   7.99495463
_cell_angle_alpha   90.00000038
_cell_angle_beta   89.99999465
_cell_angle_gamma   89.99994097
_symmetry_Int_Tables_number   1
_chemical_formula_structural   TiAg2HgS4
_chemical_formula_sum   'Ti2 Ag4 Hg2 S8'
_cell_volume   382.73743477
_cell_formula_units_Z   2
loop_
 _symmetry_equiv_pos_site_id
 _symmetry_equiv_pos_as_xyz
  1  'x, y, z'
loop_
 _atom_site_type_symbol
 _atom_site_label
 _atom_site_symmetry_multiplicity
 _atom_site_fract_x
 _atom_site_fract_y
 _atom_site_fract_z
 _atom_site_occupancy
  Ti  Ti0  1  0.00286943  0.67084080  0.00000007  1
  Ti  Ti1  1  0.50287220  0.32917966  0.50000000  1
  Ag  Ag2  1  0.51669061  0.82954007  0.74961658  1
  Ag  Ag3  1  0.01669176  0.17045746  0.75038303  1
  Ag  Ag4  1  0.01669174  0.17045744  0.24961689  1
  Ag  Ag5  1  0.51669062  0.82954006  0.25038339  1
  Hg  Hg6  1  0.51035779  0.34538162  -0.00000000  1
  Hg  Hg7  1  0.01035913  0.65461466  0.50000004  1
  S  S8  1  0.89054345  0.36428479  -0.00000002  1
  S  S9  1  0.39054074  0.63571613  0.50000001  1
  S  S10  1  0.88838547  0.82982227  0.76734285  1
  S  S11  1  0.38838304  0.17017267  0.73266077  1
  S  S12  1  0.38838299  0.17017264  0.26733918  1
  S  S13  1  0.88838547  0.82982226  0.23265721  1
  S  S14  1  0.33857430  0.67690810  0.00000001  1
  S  S15  1  0.83858126  0.32308939  0.50000000  1
