# generated using pymatgen
data_TiAgSe2
_symmetry_space_group_name_H-M   'P 1'
_cell_length_a   6.07482588
_cell_length_b   6.07482573
_cell_length_c   7.12132416
_cell_angle_alpha   115.24705020
_cell_angle_beta   115.24706174
_cell_angle_gamma   90.00016586
_symmetry_Int_Tables_number   1
_chemical_formula_structural   TiAgSe2
_chemical_formula_sum   'Ti2 Ag2 Se4'
_cell_volume   209.60922143
_cell_formula_units_Z   2
loop_
 _symmetry_equiv_pos_site_id
 _symmetry_equiv_pos_as_xyz
  1  'x, y, z'
loop_
 _atom_site_type_symbol
 _atom_site_label
 _atom_site_symmetry_multiplicity
 _atom_site_fract_x
 _atom_site_fract_y
 _atom_site_fract_z
 _atom_site_occupancy
  Ti  Ti0  1  0.49999949  0.49999973  -0.00000057  1
  Ti  Ti1  1  0.74999965  0.24999949  0.49999965  1
  Ag  Ag2  1  0.24999992  0.74999994  0.49999992  1
  Ag  Ag3  1  -0.00000010  -0.00000013  -0.00000012  1
  Se  Se4  1  0.84888373  0.87499831  0.24999924  1
  Se  Se5  1  0.62500042  0.15111669  0.75000125  1
  Se  Se6  1  0.40111597  0.37500139  0.24999979  1
  Se  Se7  1  0.12500092  0.59888457  0.75000083  1
