# generated using pymatgen
data_TiAg6SO8
_symmetry_space_group_name_H-M   'P 1'
_cell_length_a   10.51712647
_cell_length_b   10.51712674
_cell_length_c   10.51712523
_cell_angle_alpha   140.54171545
_cell_angle_beta   140.54171430
_cell_angle_gamma   57.03181151
_symmetry_Int_Tables_number   1
_chemical_formula_structural   TiAg6SO8
_chemical_formula_sum   'Ti2 Ag12 S2 O16'
_cell_volume   465.93189920
_cell_formula_units_Z   2
loop_
 _symmetry_equiv_pos_site_id
 _symmetry_equiv_pos_as_xyz
  1  'x, y, z'
loop_
 _atom_site_type_symbol
 _atom_site_label
 _atom_site_symmetry_multiplicity
 _atom_site_fract_x
 _atom_site_fract_y
 _atom_site_fract_z
 _atom_site_occupancy
  Ti  Ti0  1  0.25000060  0.74999939  0.50000000  1
  Ti  Ti1  1  0.49999936  0.50000059  -0.00000001  1
  Ag  Ag2  1  0.37499963  0.41634266  0.54134255  1
  Ag  Ag3  1  0.48648002  0.98648036  0.49999988  1
  Ag  Ag4  1  0.87500023  0.83365706  0.45865775  1
  Ag  Ag5  1  0.26352002  0.26351965  0.00000013  1
  Ag  Ag6  1  0.58365704  0.12500020  0.95865775  1
  Ag  Ag7  1  0.87499979  0.41634297  0.04134226  1
  Ag  Ag8  1  0.16634264  0.62499962  0.04134257  1
  Ag  Ag9  1  0.58365734  0.62500037  0.45865745  1
  Ag  Ag10  1  0.16634293  0.12499976  0.54134224  1
  Ag  Ag11  1  0.37500039  0.83365736  0.95865744  1
  Ag  Ag12  1  0.01351964  0.51352000  0.50000014  1
  Ag  Ag13  1  0.73648035  0.73648001  -0.00000012  1
  S  S14  1  0.74999560  0.25000429  0.49999988  1
  S  S15  1  0.00000437  -0.00000436  0.00000003  1
  O  O16  1  0.95341850  0.78078125  0.82736104  1
  O  O17  1  0.65620618  0.44252242  0.21368431  1
  O  O18  1  0.87393979  0.04658191  0.82735816  1
  O  O19  1  0.55747796  0.77116150  0.21368353  1
  O  O20  1  0.87606022  0.20341810  0.67264185  1
  O  O21  1  0.19252204  0.47883844  0.28631641  1
  O  O22  1  0.19252243  0.90620622  0.71368433  1
  O  O23  1  0.52116155  0.80747796  0.71368357  1
  O  O24  1  0.21921877  0.04658151  0.17263897  1
  O  O25  1  0.22883843  0.44252204  0.78631643  1
  O  O26  1  0.53078127  0.20341851  0.32736106  1
  O  O27  1  0.55747756  0.34379383  0.78631571  1
  O  O28  1  0.79658152  0.46921880  0.67263900  1
  O  O29  1  0.95341811  0.12606020  0.17264182  1
  O  O30  1  0.09379378  0.80747756  0.28631566  1
  O  O31  1  0.79658189  0.12393982  0.32735821  1
