# generated using pymatgen
data_TiAsO4
_symmetry_space_group_name_H-M   'P 1'
_cell_length_a   5.53894392
_cell_length_b   5.46733910
_cell_length_c   11.89390391
_cell_angle_alpha   91.99737365
_cell_angle_beta   87.22820157
_cell_angle_gamma   121.66156872
_symmetry_Int_Tables_number   1
_chemical_formula_structural   TiAsO4
_chemical_formula_sum   'Ti3 As3 O12'
_cell_volume   306.19986281
_cell_formula_units_Z   3
loop_
 _symmetry_equiv_pos_site_id
 _symmetry_equiv_pos_as_xyz
  1  'x, y, z'
loop_
 _atom_site_type_symbol
 _atom_site_label
 _atom_site_symmetry_multiplicity
 _atom_site_fract_x
 _atom_site_fract_y
 _atom_site_fract_z
 _atom_site_occupancy
  Ti  Ti0  1  0.42545078  0.02962249  0.33541648  1
  Ti  Ti1  1  0.03847238  0.42504124  0.66446235  1
  Ti  Ti2  1  0.52566921  0.52561158  -0.00189497  1
  As  As3  1  0.46543734  -0.01531447  0.83419367  1
  As  As4  1  -0.00639163  0.47380130  0.16300143  1
  As  As5  1  0.61968613  0.63298510  0.49385005  1
  O  O6  1  0.28811490  0.40728493  0.12075635  1
  O  O7  1  0.45068398  0.83671590  0.44365594  1
  O  O8  1  0.16080812  0.74699859  0.76935237  1
  O  O9  1  0.85507707  0.44299780  0.55971190  1
  O  O10  1  0.73349831  0.15484384  0.23041604  1
  O  O11  1  0.41302306  0.25788159  0.87854856  1
  O  O12  1  0.43672515  0.34848188  0.39019238  1
  O  O13  1  0.76836783  0.09555268  0.75498750  1
  O  O14  1  0.85303626  0.57391277  0.04209316  1
  O  O15  1  0.09436899  0.76234160  0.25794531  1
  O  O16  1  0.51430217  0.84906504  0.95401665  1
  O  O17  1  0.36367097  0.45217616  0.60929288  1
