# generated using pymatgen
data_TiBrO
_symmetry_space_group_name_H-M   'P 1'
_cell_length_a   5.41631775
_cell_length_b   6.27947959
_cell_length_c   8.95810969
_cell_angle_alpha   90.00011834
_cell_angle_beta   89.99992801
_cell_angle_gamma   90.00012537
_symmetry_Int_Tables_number   1
_chemical_formula_structural   TiBrO
_chemical_formula_sum   'Ti4 Br4 O4'
_cell_volume   304.68015203
_cell_formula_units_Z   4
loop_
 _symmetry_equiv_pos_site_id
 _symmetry_equiv_pos_as_xyz
  1  'x, y, z'
loop_
 _atom_site_type_symbol
 _atom_site_label
 _atom_site_symmetry_multiplicity
 _atom_site_fract_x
 _atom_site_fract_y
 _atom_site_fract_z
 _atom_site_occupancy
  Ti  Ti0  1  0.99347975  0.09184338  0.07979274  1
  Ti  Ti1  1  0.49348121  0.90815765  0.92020609  1
  Ti  Ti2  1  0.99348342  0.59184230  0.92021024  1
  Ti  Ti3  1  0.49348259  0.40815845  0.07979068  1
  Br  Br4  1  0.09307514  0.99198230  0.32836278  1
  Br  Br5  1  0.59307518  0.00801776  0.67163678  1
  Br  Br6  1  0.09307453  0.49198310  0.67163875  1
  Br  Br7  1  0.59307496  0.50801674  0.32836106  1
  O  O8  1  0.14244271  0.36758030  0.03811742  1
  O  O9  1  0.64244298  0.63241776  0.96188325  1
  O  O10  1  0.14244167  0.86758392  0.96188390  1
  O  O11  1  0.64244186  0.13241633  0.03811631  1
