# generated using pymatgen
data_TiCuS2
_symmetry_space_group_name_H-M   'P 1'
_cell_length_a   5.41038338
_cell_length_b   5.41038320
_cell_length_c   6.56255900
_cell_angle_alpha   114.34388010
_cell_angle_beta   114.34388214
_cell_angle_gamma   89.99867202
_symmetry_Int_Tables_number   1
_chemical_formula_structural   TiCuS2
_chemical_formula_sum   'Ti2 Cu2 S4'
_cell_volume   156.08356513
_cell_formula_units_Z   2
loop_
 _symmetry_equiv_pos_site_id
 _symmetry_equiv_pos_as_xyz
  1  'x, y, z'
loop_
 _atom_site_type_symbol
 _atom_site_label
 _atom_site_symmetry_multiplicity
 _atom_site_fract_x
 _atom_site_fract_y
 _atom_site_fract_z
 _atom_site_occupancy
  Ti  Ti0  1  0.49996850  0.49999008  -0.00000064  1
  Ti  Ti1  1  0.74999004  0.24996843  0.49999932  1
  Cu  Cu2  1  0.25000111  0.75000050  0.49999796  1
  Cu  Cu3  1  0.00000071  0.00000125  -0.00000167  1
  S  S4  1  0.88215098  0.87500015  0.24998701  1
  S  S5  1  0.62500811  0.11788185  0.75001548  1
  S  S6  1  0.36788200  0.37500685  0.25001584  1
  S  S7  1  0.12499854  0.63215088  0.74998669  1
