# generated using pymatgen
data_TiCuCl4
_symmetry_space_group_name_H-M   'P 1'
_cell_length_a   5.59476918
_cell_length_b   5.60053411
_cell_length_c   10.73682447
_cell_angle_alpha   90.00000873
_cell_angle_beta   90.00003760
_cell_angle_gamma   89.99997748
_symmetry_Int_Tables_number   1
_chemical_formula_structural   TiCuCl4
_chemical_formula_sum   'Ti2 Cu2 Cl8'
_cell_volume   336.42438998
_cell_formula_units_Z   2
loop_
 _symmetry_equiv_pos_site_id
 _symmetry_equiv_pos_as_xyz
  1  'x, y, z'
loop_
 _atom_site_type_symbol
 _atom_site_label
 _atom_site_symmetry_multiplicity
 _atom_site_fract_x
 _atom_site_fract_y
 _atom_site_fract_z
 _atom_site_occupancy
  Ti  Ti0  1  -0.00000014  0.49999999  0.25000046  1
  Ti  Ti1  1  0.50000003  0.00000011  0.75000006  1
  Cu  Cu2  1  -0.00000002  -0.00000007  0.00002998  1
  Cu  Cu3  1  0.00000000  -0.00000013  0.49996988  1
  Cl  Cl4  1  0.25556029  0.22225182  0.87632703  1
  Cl  Cl5  1  0.74443983  0.77774825  0.87632692  1
  Cl  Cl6  1  0.22226971  0.25570712  0.37626978  1
  Cl  Cl7  1  0.25556423  0.77774544  0.62367504  1
  Cl  Cl8  1  0.74443577  0.22225451  0.62367508  1
  Cl  Cl9  1  0.22226638  0.74429711  0.12372795  1
  Cl  Cl10  1  0.77773351  0.25570290  0.12372802  1
  Cl  Cl11  1  0.77773040  0.74429295  0.37626977  1
