# generated using pymatgen
data_TiCuSe2
_symmetry_space_group_name_H-M   'P 1'
_cell_length_a   5.71247894
_cell_length_b   5.71247888
_cell_length_c   6.92621089
_cell_angle_alpha   114.35750891
_cell_angle_beta   114.35750418
_cell_angle_gamma   89.99747108
_symmetry_Int_Tables_number   1
_chemical_formula_structural   TiCuSe2
_chemical_formula_sum   'Ti2 Cu2 Se4'
_cell_volume   183.59362818
_cell_formula_units_Z   2
loop_
 _symmetry_equiv_pos_site_id
 _symmetry_equiv_pos_as_xyz
  1  'x, y, z'
loop_
 _atom_site_type_symbol
 _atom_site_label
 _atom_site_symmetry_multiplicity
 _atom_site_fract_x
 _atom_site_fract_y
 _atom_site_fract_z
 _atom_site_occupancy
  Ti  Ti0  1  0.74999827  0.24999890  0.49999685  1
  Ti  Ti1  1  0.49999893  0.49999829  -0.00000314  1
  Cu  Cu2  1  0.24999955  0.74999910  0.49999916  1
  Cu  Cu3  1  -0.00000085  -0.00000045  -0.00000078  1
  Se  Se4  1  0.36667282  0.37499217  0.25001923  1
  Se  Se5  1  0.12497510  0.63332930  0.74998469  1
  Se  Se6  1  0.62500831  0.11665419  0.74998204  1
  Se  Se7  1  0.88334787  0.87502852  0.25002194  1
