# generated using pymatgen
data_TiH4NF4
_symmetry_space_group_name_H-M   'P 1'
_cell_length_a   5.37172577
_cell_length_b   5.37160174
_cell_length_c   13.28036688
_cell_angle_alpha   89.99545975
_cell_angle_beta   89.99622094
_cell_angle_gamma   89.99969903
_symmetry_Int_Tables_number   1
_chemical_formula_structural   TiH4NF4
_chemical_formula_sum   'Ti4 H16 N4 F16'
_cell_volume   383.20195007
_cell_formula_units_Z   4
loop_
 _symmetry_equiv_pos_site_id
 _symmetry_equiv_pos_as_xyz
  1  'x, y, z'
loop_
 _atom_site_type_symbol
 _atom_site_label
 _atom_site_symmetry_multiplicity
 _atom_site_fract_x
 _atom_site_fract_y
 _atom_site_fract_z
 _atom_site_occupancy
  Ti  Ti0  1  0.00000001  0.50000000  0.50000001  1
  Ti  Ti1  1  0.50000000  0.00000000  0.00000001  1
  Ti  Ti2  1  0.50000000  -0.00000000  0.50000001  1
  Ti  Ti3  1  -0.00000001  0.49999999  -0.00000000  1
  H  H4  1  0.65931921  0.49872584  0.70576641  1
  H  H5  1  0.49872539  0.34067909  0.20577380  1
  H  H6  1  0.84067198  0.99872584  0.70576937  1
  H  H7  1  0.99872511  0.15931498  0.20576752  1
  H  H8  1  0.65931202  0.49872091  0.29423090  1
  H  H9  1  0.49871929  0.34067344  0.79423057  1
  H  H10  1  0.84066689  0.99871716  0.29423342  1
  H  H11  1  0.99872071  0.15930465  0.79422953  1
  H  H12  1  0.34068081  0.50127417  0.29423357  1
  H  H13  1  0.50127459  0.65932074  0.79422612  1
  H  H14  1  0.15932872  0.00127414  0.29423080  1
  H  H15  1  0.00127497  0.84068471  0.79423256  1
  H  H16  1  0.34068735  0.50127910  0.70576892  1
  H  H17  1  0.50128068  0.65932689  0.20576930  1
  H  H18  1  0.15933375  0.00128281  0.70576642  1
  H  H19  1  0.00127937  0.84069509  0.20577040  1
  N  N20  1  0.49999905  0.50000034  0.75000666  1
  N  N21  1  0.50000179  0.49999938  0.24999379  1
  N  N22  1  -0.00000147  0.00000316  0.75000563  1
  N  N23  1  -0.00000028  -0.00000238  0.24999433  1
  F  F24  1  -0.00001624  0.50000654  0.64792476  1
  F  F25  1  0.50001374  0.00004216  0.14794646  1
  F  F26  1  0.50001335  0.00000650  0.64796243  1
  F  F27  1  0.00001414  0.49995388  0.14792561  1
  F  F28  1  0.00001625  0.49999345  0.35207524  1
  F  F29  1  0.49998625  -0.00004213  0.85205353  1
  F  F30  1  0.49998669  -0.00000651  0.35203756  1
  F  F31  1  -0.00001415  0.50004606  0.85207439  1
  F  F32  1  0.18393736  0.18377436  0.50000457  1
  F  F33  1  0.18384751  0.81614838  -0.00000210  1
  F  F34  1  0.31615871  0.68391388  0.50000415  1
  F  F35  1  0.68381227  0.68389629  -0.00000152  1
  F  F36  1  0.81606266  0.81622564  0.49999543  1
  F  F37  1  0.81615250  0.18385160  0.00000210  1
  F  F38  1  0.68384130  0.31608612  0.49999584  1
  F  F39  1  0.31618773  0.31610372  0.00000152  1
