# generated using pymatgen
data_TiH6N2F3
_symmetry_space_group_name_H-M   'P 1'
_cell_length_a   4.07940035
_cell_length_b   5.86688067
_cell_length_c   5.51151300
_cell_angle_alpha   93.53246582
_cell_angle_beta   111.71374519
_cell_angle_gamma   69.65880395
_symmetry_Int_Tables_number   1
_chemical_formula_structural   TiH6N2F3
_chemical_formula_sum   'Ti1 H6 N2 F3'
_cell_volume   114.56668866
_cell_formula_units_Z   1
loop_
 _symmetry_equiv_pos_site_id
 _symmetry_equiv_pos_as_xyz
  1  'x, y, z'
loop_
 _atom_site_type_symbol
 _atom_site_label
 _atom_site_symmetry_multiplicity
 _atom_site_fract_x
 _atom_site_fract_y
 _atom_site_fract_z
 _atom_site_occupancy
  Ti  Ti0  1  -0.00000001  0.00000005  -0.00000003  1
  H  H1  1  0.12246958  0.54715597  0.79205816  1
  H  H2  1  0.87753036  0.45284406  0.20794181  1
  H  H3  1  0.12516423  0.73437189  0.58473196  1
  H  H4  1  0.27477064  0.26561268  0.41524383  1
  H  H5  1  0.87483572  0.26562805  0.41526796  1
  H  H6  1  0.72522919  0.73438739  0.58475619  1
  N  N7  1  0.99278864  0.72188199  0.70739210  1
  N  N8  1  0.00721154  0.27811797  0.29260798  1
  F  F9  1  0.26457899  0.75282974  0.28170707  1
  F  F10  1  0.73542115  0.24717022  0.71829298  1
  F  F11  1  0.49999997  -0.00000003  -0.00000001  1
