# generated using pymatgen
data_TiPS4
_symmetry_space_group_name_H-M   'P 1'
_cell_length_a   5.96916374
_cell_length_b   5.96953592
_cell_length_c   10.58187569
_cell_angle_alpha   90.00014432
_cell_angle_beta   89.99993809
_cell_angle_gamma   90.00002630
_symmetry_Int_Tables_number   1
_chemical_formula_structural   TiPS4
_chemical_formula_sum   'Ti2 P2 S8'
_cell_volume   377.06542997
_cell_formula_units_Z   2
loop_
 _symmetry_equiv_pos_site_id
 _symmetry_equiv_pos_as_xyz
  1  'x, y, z'
loop_
 _atom_site_type_symbol
 _atom_site_label
 _atom_site_symmetry_multiplicity
 _atom_site_fract_x
 _atom_site_fract_y
 _atom_site_fract_z
 _atom_site_occupancy
  Ti  Ti0  1  0.50000095  0.49999978  0.74999985  1
  Ti  Ti1  1  0.49999925  0.49999954  0.24999977  1
  P  P2  1  0.00000000  0.49999842  0.74999967  1
  P  P3  1  0.50000063  -0.00000005  0.24999968  1
  S  S4  1  0.21937279  0.30842289  0.64092902  1
  S  S5  1  0.78062599  0.69157819  0.64092862  1
  S  S6  1  0.21937337  0.69157846  0.85907170  1
  S  S7  1  0.78062666  0.30842240  0.85907114  1
  S  S8  1  0.30841457  0.78063381  0.35906435  1
  S  S9  1  0.69158544  0.21936551  0.35906440  1
  S  S10  1  0.69158520  0.78063451  0.14093596  1
  S  S11  1  0.30841514  0.21936654  0.14093584  1
