# generated using pymatgen
data_Tl3Cr7S12
_symmetry_space_group_name_H-M   'P 1'
_cell_length_a   12.62727368
_cell_length_b   9.01071701
_cell_length_c   9.65745758
_cell_angle_alpha   84.34636514
_cell_angle_beta   89.99996520
_cell_angle_gamma   89.99998444
_symmetry_Int_Tables_number   1
_chemical_formula_structural   Tl3Cr7S12
_chemical_formula_sum   'Tl6 Cr14 S24'
_cell_volume   1093.48800310
_cell_formula_units_Z   2
loop_
 _symmetry_equiv_pos_site_id
 _symmetry_equiv_pos_as_xyz
  1  'x, y, z'
loop_
 _atom_site_type_symbol
 _atom_site_label
 _atom_site_symmetry_multiplicity
 _atom_site_fract_x
 _atom_site_fract_y
 _atom_site_fract_z
 _atom_site_occupancy
  Tl  Tl0  1  0.25778837  0.04097384  0.47866335  1
  Tl  Tl1  1  0.75778895  0.95902546  0.52133661  1
  Tl  Tl2  1  0.02758966  0.11793589  0.22908051  1
  Tl  Tl3  1  0.52758988  0.88206338  0.77091979  1
  Tl  Tl4  1  0.02529183  0.62024744  0.15885921  1
  Tl  Tl5  1  0.52529185  0.37975218  0.84114153  1
  Cr  Cr6  1  0.28304816  0.03021535  0.02083963  1
  Cr  Cr7  1  0.78304823  0.96978533  0.97916072  1
  Cr  Cr8  1  0.76388455  0.29375290  0.19481947  1
  Cr  Cr9  1  0.26388482  0.70624865  0.80517973  1
  Cr  Cr10  1  0.37204334  0.70549094  0.17494008  1
  Cr  Cr11  1  0.87204327  0.29451281  0.82505972  1
  Cr  Cr12  1  0.76721654  0.47792017  0.47758228  1
  Cr  Cr13  1  0.26721648  0.52207983  0.52241800  1
  Cr  Cr14  1  0.67397588  0.66788471  0.17628340  1
  Cr  Cr15  1  0.17397621  0.33211507  0.82371689  1
  Cr  Cr16  1  0.53410841  0.02670360  0.20363671  1
  Cr  Cr17  1  0.03410866  0.97329624  0.79636327  1
  Cr  Cr18  1  0.50973716  0.36957480  0.36380340  1
  Cr  Cr19  1  0.00973813  0.63042540  0.63619723  1
  S  S20  1  0.95722925  0.92407481  0.00873497  1
  S  S21  1  0.20703577  0.24744187  0.04644130  1
  S  S22  1  0.31234831  0.32849879  0.67314824  1
  S  S23  1  0.81234794  0.67150204  0.32685130  1
  S  S24  1  0.70703428  0.75255477  0.95355775  1
  S  S25  1  0.60974882  0.42611862  0.16171832  1
  S  S26  1  0.84839359  0.51503989  0.68302440  1
  S  S27  1  0.34839267  0.48496251  0.31697544  1
  S  S28  1  0.33589194  0.73042447  0.59068528  1
  S  S29  1  0.83589308  0.26957454  0.40931566  1
  S  S30  1  0.59647945  0.47513981  0.53101679  1
  S  S31  1  0.09648080  0.52486001  0.46898351  1
  S  S32  1  0.39728627  0.64700125  0.95393516  1
  S  S33  1  0.89728683  0.35299812  0.04606378  1
  S  S34  1  0.73879831  0.12996417  0.79538099  1
  S  S35  1  0.23879748  0.87003779  0.20461733  1
  S  S36  1  0.52851619  0.77700939  0.26615231  1
  S  S37  1  0.02851779  0.22299196  0.73384709  1
  S  S38  1  0.71662008  0.05021563  0.18028010  1
  S  S39  1  0.21662208  0.94978156  0.81971907  1
  S  S40  1  0.49392219  0.12180774  0.40463091  1
  S  S41  1  0.99392378  0.87819196  0.59537135  1
  S  S42  1  0.10975024  0.57388021  0.83828240  1
  S  S43  1  0.45722651  0.07592410  0.99126503  1
