# generated using pymatgen
data_Tl3Ga7S12
_symmetry_space_group_name_H-M   'P 1'
_cell_length_a   12.68599631
_cell_length_b   9.29861966
_cell_length_c   9.79840827
_cell_angle_alpha   83.96593987
_cell_angle_beta   90.00000780
_cell_angle_gamma   90.00000305
_symmetry_Int_Tables_number   1
_chemical_formula_structural   Tl3Ga7S12
_chemical_formula_sum   'Tl6 Ga14 S24'
_cell_volume   1149.43848165
_cell_formula_units_Z   2
loop_
 _symmetry_equiv_pos_site_id
 _symmetry_equiv_pos_as_xyz
  1  'x, y, z'
loop_
 _atom_site_type_symbol
 _atom_site_label
 _atom_site_symmetry_multiplicity
 _atom_site_fract_x
 _atom_site_fract_y
 _atom_site_fract_z
 _atom_site_occupancy
  Tl  Tl0  1  0.25355169  0.03335385  0.47872658  1
  Tl  Tl1  1  0.75355175  0.96664641  0.52127344  1
  Tl  Tl2  1  0.02602965  0.12626103  0.22329116  1
  Tl  Tl3  1  0.52602968  0.87373897  0.77670909  1
  Tl  Tl4  1  0.02100610  0.62279377  0.16664863  1
  Tl  Tl5  1  0.52100612  0.37720621  0.83335131  1
  Ga  Ga6  1  0.28363951  0.02997140  0.03023479  1
  Ga  Ga7  1  0.78363945  0.97002867  0.96976523  1
  Ga  Ga8  1  0.76459087  0.28941098  0.19106776  1
  Ga  Ga9  1  0.26459089  0.71058905  0.80893194  1
  Ga  Ga10  1  0.37294413  0.69515088  0.17837818  1
  Ga  Ga11  1  0.87294417  0.30484908  0.82162169  1
  Ga  Ga12  1  0.76697531  0.47906783  0.47955250  1
  Ga  Ga13  1  0.26697539  0.52093202  0.52044768  1
  Ga  Ga14  1  0.67220416  0.66910421  0.17538604  1
  Ga  Ga15  1  0.17220412  0.33089582  0.82461402  1
  Ga  Ga16  1  0.53786349  0.02082617  0.19874293  1
  Ga  Ga17  1  0.03786353  0.97917370  0.80125741  1
  Ga  Ga18  1  0.51536858  0.36977926  0.35783339  1
  Ga  Ga19  1  0.01536857  0.63022077  0.64216634  1
  S  S20  1  0.96026014  0.92686976  0.00871408  1
  S  S21  1  0.20479664  0.24748929  0.04688919  1
  S  S22  1  0.30854034  0.32493778  0.67527482  1
  S  S23  1  0.80854028  0.67506214  0.32472531  1
  S  S24  1  0.70479670  0.75251061  0.95311085  1
  S  S25  1  0.61275440  0.42981017  0.15335052  1
  S  S26  1  0.84460980  0.52859452  0.68995058  1
  S  S27  1  0.34460977  0.47140546  0.31004936  1
  S  S28  1  0.33393886  0.72717190  0.59446053  1
  S  S29  1  0.83393868  0.27282810  0.40553932  1
  S  S30  1  0.59170123  0.47197224  0.53169660  1
  S  S31  1  0.09170137  0.52802768  0.46830327  1
  S  S32  1  0.39947656  0.64451740  0.95615925  1
  S  S33  1  0.89947660  0.35548265  0.04384071  1
  S  S34  1  0.74290448  0.14130454  0.79382309  1
  S  S35  1  0.24290445  0.85869543  0.20617687  1
  S  S36  1  0.52750304  0.77492905  0.27695301  1
  S  S37  1  0.02750304  0.22507085  0.72304696  1
  S  S38  1  0.72183638  0.04724285  0.17745016  1
  S  S39  1  0.22183641  0.95275713  0.82254984  1
  S  S40  1  0.49446154  0.12395632  0.39210764  1
  S  S41  1  0.99446153  0.87604380  0.60789249  1
  S  S42  1  0.11275441  0.57018988  0.84664925  1
  S  S43  1  0.46026021  0.07313037  0.99128617  1
