# generated using pymatgen
data_Tl3In7S12
_symmetry_space_group_name_H-M   'P 1'
_cell_length_a   13.53273167
_cell_length_b   9.92026624
_cell_length_c   10.24419182
_cell_angle_alpha   84.23752965
_cell_angle_beta   90.00000010
_cell_angle_gamma   89.99999959
_symmetry_Int_Tables_number   1
_chemical_formula_structural   Tl3In7S12
_chemical_formula_sum   'Tl6 In14 S24'
_cell_volume   1368.31570570
_cell_formula_units_Z   2
loop_
 _symmetry_equiv_pos_site_id
 _symmetry_equiv_pos_as_xyz
  1  'x, y, z'
loop_
 _atom_site_type_symbol
 _atom_site_label
 _atom_site_symmetry_multiplicity
 _atom_site_fract_x
 _atom_site_fract_y
 _atom_site_fract_z
 _atom_site_occupancy
  Tl  Tl0  1  0.26507683  0.01308746  0.47004204  1
  Tl  Tl1  1  0.76507683  0.98691249  0.52995785  1
  Tl  Tl2  1  0.02497484  0.12949779  0.21106364  1
  Tl  Tl3  1  0.52497485  0.87050220  0.78893627  1
  Tl  Tl4  1  0.01042528  0.62635152  0.17234910  1
  Tl  Tl5  1  0.51042526  0.37364846  0.82765094  1
  In  In6  1  0.28416105  0.03343562  0.03132748  1
  In  In7  1  0.78416103  0.96656439  0.96867248  1
  In  In8  1  0.76684605  0.28495935  0.19671829  1
  In  In9  1  0.26684606  0.71504067  0.80328175  1
  In  In10  1  0.37426813  0.69179350  0.17636030  1
  In  In11  1  0.87426810  0.30820649  0.82363965  1
  In  In12  1  0.76461995  0.47804281  0.48877411  1
  In  In13  1  0.26461993  0.52195722  0.51122586  1
  In  In14  1  0.67199535  0.66377767  0.17116003  1
  In  In15  1  0.17199535  0.33622234  0.82883995  1
  In  In16  1  0.53868481  0.01784864  0.20391246  1
  In  In17  1  0.03868481  0.98215137  0.79608762  1
  In  In18  1  0.51111248  0.36419765  0.36477018  1
  In  In19  1  0.01111247  0.63580238  0.63522993  1
  S  S20  1  0.96346092  0.92756031  0.01338546  1
  S  S21  1  0.19890368  0.24809184  0.05909288  1
  S  S22  1  0.31316345  0.33308803  0.67853357  1
  S  S23  1  0.81316347  0.66691197  0.32146640  1
  S  S24  1  0.69890368  0.75190815  0.94090709  1
  S  S25  1  0.61111382  0.42024415  0.15180053  1
  S  S26  1  0.84156524  0.53799623  0.70113820  1
  S  S27  1  0.34156526  0.46200378  0.29886180  1
  S  S28  1  0.33551390  0.73428876  0.57986712  1
  S  S29  1  0.83551389  0.26571122  0.42013290  1
  S  S30  1  0.58646274  0.47554166  0.54248015  1
  S  S31  1  0.08646270  0.52445839  0.45751991  1
  S  S32  1  0.40794921  0.64500491  0.94683555  1
  S  S33  1  0.90794918  0.35499507  0.05316442  1
  S  S34  1  0.74251721  0.14286311  0.78974338  1
  S  S35  1  0.24251721  0.85713686  0.21025655  1
  S  S36  1  0.52900131  0.76810994  0.28458215  1
  S  S37  1  0.02900131  0.23189005  0.71541786  1
  S  S38  1  0.72561461  0.03744639  0.18816503  1
  S  S39  1  0.22561463  0.96255363  0.81183493  1
  S  S40  1  0.48952621  0.11585718  0.40529459  1
  S  S41  1  0.98952617  0.88414283  0.59470550  1
  S  S42  1  0.11111383  0.57975585  0.84819952  1
  S  S43  1  0.46346095  0.07243967  0.98661458  1
