# generated using pymatgen
data_TlCrI4
_symmetry_space_group_name_H-M   'P 1'
_cell_length_a   8.32571598
_cell_length_b   8.14645107
_cell_length_c   16.51409443
_cell_angle_alpha   83.74828779
_cell_angle_beta   89.99832091
_cell_angle_gamma   89.99774547
_symmetry_Int_Tables_number   1
_chemical_formula_structural   TlCrI4
_chemical_formula_sum   'Tl4 Cr4 I16'
_cell_volume   1113.40812239
_cell_formula_units_Z   4
loop_
 _symmetry_equiv_pos_site_id
 _symmetry_equiv_pos_as_xyz
  1  'x, y, z'
loop_
 _atom_site_type_symbol
 _atom_site_label
 _atom_site_symmetry_multiplicity
 _atom_site_fract_x
 _atom_site_fract_y
 _atom_site_fract_z
 _atom_site_occupancy
  Tl  Tl0  1  0.50925261  0.74144897  0.86254198  1
  Tl  Tl1  1  0.99074607  0.74145776  0.36253874  1
  Tl  Tl2  1  0.49074118  0.25854845  0.13745699  1
  Tl  Tl3  1  0.00925668  0.25855076  0.63746260  1
  Cr  Cr4  1  0.14091608  0.22710568  0.36233831  1
  Cr  Cr5  1  0.64091715  0.77289446  0.13766974  1
  Cr  Cr6  1  0.35908636  0.22708664  0.86233094  1
  Cr  Cr7  1  0.85909313  0.77290257  0.63766954  1
  I  I8  1  0.25041772  0.41201788  0.46653281  1
  I  I9  1  0.63198689  0.58255395  0.27226584  1
  I  I10  1  0.13199983  0.41737248  0.22778251  1
  I  I11  1  0.64034536  0.98032994  0.67054004  1
  I  I12  1  0.35959531  0.01972962  0.32946277  1
  I  I13  1  0.85420015  0.16341831  0.41615967  1
  I  I14  1  0.75045402  0.58793031  0.03342368  1
  I  I15  1  0.14034947  0.01967435  0.82946359  1
  I  I16  1  0.74956019  0.58794845  0.53344940  1
  I  I17  1  0.85968145  0.98037063  0.17054341  1
  I  I18  1  0.86800840  0.58258425  0.77224286  1
  I  I19  1  0.24955405  0.41204385  0.96655563  1
  I  I20  1  0.14587973  0.83659430  0.58382825  1
  I  I21  1  0.64587535  0.16340926  0.91616952  1
  I  I22  1  0.35407100  0.83660930  0.08381915  1
  I  I23  1  0.36801181  0.41741783  0.72775203  1
