# generated using pymatgen
data_TlCrSe2
_symmetry_space_group_name_H-M   'P 1'
_cell_length_a   7.67150261
_cell_length_b   7.67139675
_cell_length_c   15.72516108
_cell_angle_alpha   82.78527958
_cell_angle_beta   82.78401146
_cell_angle_gamma   89.94920658
_symmetry_Int_Tables_number   1
_chemical_formula_structural   TlCrSe2
_chemical_formula_sum   'Tl8 Cr8 Se16'
_cell_volume   910.74043853
_cell_formula_units_Z   8
loop_
 _symmetry_equiv_pos_site_id
 _symmetry_equiv_pos_as_xyz
  1  'x, y, z'
loop_
 _atom_site_type_symbol
 _atom_site_label
 _atom_site_symmetry_multiplicity
 _atom_site_fract_x
 _atom_site_fract_y
 _atom_site_fract_z
 _atom_site_occupancy
  Tl  Tl0  1  0.65659475  0.77642732  0.87852023  1
  Tl  Tl1  1  0.22357329  0.34340306  0.62147843  1
  Tl  Tl2  1  0.34339218  0.22356634  0.12148200  1
  Tl  Tl3  1  0.77643219  0.65660848  0.37851522  1
  Tl  Tl4  1  0.23178746  0.85049392  0.61171743  1
  Tl  Tl5  1  0.14950834  0.76820958  0.88828255  1
  Tl  Tl6  1  0.76821682  0.14948968  0.38827096  1
  Tl  Tl7  1  0.85050788  0.23178447  0.11172601  1
  Cr  Cr8  1  0.41842926  0.28882491  0.84462428  1
  Cr  Cr9  1  0.71116265  0.58154758  0.65537881  1
  Cr  Cr10  1  0.58159910  0.71116869  0.15537363  1
  Cr  Cr11  1  0.28884503  0.41841441  0.34462798  1
  Cr  Cr12  1  0.71083376  0.09159949  0.65757057  1
  Cr  Cr13  1  0.90840036  0.28915071  0.84242099  1
  Cr  Cr14  1  0.28917518  0.90846605  0.34243535  1
  Cr  Cr15  1  0.09155282  0.71084302  0.15757401  1
  Se  Se16  1  0.64111936  0.26850487  0.93953873  1
  Se  Se17  1  0.73149295  0.35888190  0.56045976  1
  Se  Se18  1  0.35885239  0.73148768  0.06047797  1
  Se  Se19  1  0.26851374  0.64112870  0.43951618  1
  Se  Se20  1  0.43690757  0.06191773  0.75128611  1
  Se  Se21  1  0.93809899  0.56310103  0.74871466  1
  Se  Se22  1  0.56309038  0.93809635  0.24870586  1
  Se  Se23  1  0.06190481  0.43690538  0.25129403  1
  Se  Se24  1  0.43768179  0.56231268  0.74999888  1
  Se  Se25  1  0.56231631  0.43766905  0.25000289  1
  Se  Se26  1  0.93895008  0.06105440  0.75000329  1
  Se  Se27  1  0.06105711  0.93893111  0.24999585  1
  Se  Se28  1  0.72775199  0.86151817  0.56697378  1
  Se  Se29  1  0.13849866  0.27224736  0.93302883  1
  Se  Se30  1  0.27224912  0.13849327  0.43307210  1
  Se  Se31  1  0.86150369  0.72775260  0.06693261  1
