# generated using pymatgen
data_TlCrS2
_symmetry_space_group_name_H-M   'P 1'
_cell_length_a   7.42326380
_cell_length_b   7.42324683
_cell_length_c   15.00907890
_cell_angle_alpha   82.94166508
_cell_angle_beta   82.93983773
_cell_angle_gamma   90.03359834
_symmetry_Int_Tables_number   1
_chemical_formula_structural   TlCrS2
_chemical_formula_sum   'Tl8 Cr8 S16'
_cell_volume   814.47617879
_cell_formula_units_Z   8
loop_
 _symmetry_equiv_pos_site_id
 _symmetry_equiv_pos_as_xyz
  1  'x, y, z'
loop_
 _atom_site_type_symbol
 _atom_site_label
 _atom_site_symmetry_multiplicity
 _atom_site_fract_x
 _atom_site_fract_y
 _atom_site_fract_z
 _atom_site_occupancy
  Tl  Tl0  1  0.65259157  0.78171713  0.38310162  1
  Tl  Tl1  1  0.21828355  0.34740530  0.11690000  1
  Tl  Tl2  1  0.34742336  0.21827923  0.61689655  1
  Tl  Tl3  1  0.78172037  0.65257531  0.88310500  1
  Tl  Tl4  1  0.23090013  0.84613767  0.11257597  1
  Tl  Tl5  1  0.15386487  0.76910285  0.38742499  1
  Tl  Tl6  1  0.76910562  0.15387218  0.88742646  1
  Tl  Tl7  1  0.84612827  0.23089376  0.61257298  1
  Cr  Cr8  1  0.40780912  0.29009992  0.34397489  1
  Cr  Cr9  1  0.70989290  0.59218971  0.15602412  1
  Cr  Cr10  1  0.59217224  0.70990350  0.65603205  1
  Cr  Cr11  1  0.29010341  0.40783694  0.84396762  1
  Cr  Cr12  1  0.70947724  0.08286982  0.15794209  1
  Cr  Cr13  1  0.91712745  0.29051214  0.34205603  1
  Cr  Cr14  1  0.29052102  0.91711721  0.84205558  1
  Cr  Cr15  1  0.08288647  0.70948331  0.65794619  1
  S  S16  1  0.44341616  0.07173182  0.25011560  1
  S  S17  1  0.92827379  0.55658450  0.24988583  1
  S  S18  1  0.55658874  0.92826357  0.74989549  1
  S  S19  1  0.07173112  0.44340318  0.75010670  1
  S  S20  1  0.44529736  0.55470765  0.24999775  1
  S  S21  1  0.55470513  0.44529066  0.75000155  1
  S  S22  1  0.93019063  0.06981371  0.25000287  1
  S  S23  1  0.06980333  0.93019310  0.74999960  1
  S  S24  1  0.72651184  0.86190751  0.06622517  1
  S  S25  1  0.13810597  0.27348777  0.43376875  1
  S  S26  1  0.27348917  0.13810960  0.93374987  1
  S  S27  1  0.86188068  0.72651148  0.56624688  1
  S  S28  1  0.64383717  0.26898187  0.42632677  1
  S  S29  1  0.73101890  0.35616730  0.07367390  1
  S  S30  1  0.35616380  0.73102038  0.57366291  1
  S  S31  1  0.26897862  0.64382994  0.92633823  1
