# generated using pymatgen
data_TlGa11O17
_symmetry_space_group_name_H-M   'P 1'
_cell_length_a   5.92369798
_cell_length_b   5.92369807
_cell_length_c   23.91883600
_cell_angle_alpha   90.00000191
_cell_angle_beta   90.00000169
_cell_angle_gamma   119.98966307
_symmetry_Int_Tables_number   1
_chemical_formula_structural   TlGa11O17
_chemical_formula_sum   'Tl2 Ga22 O34'
_cell_volume   726.94528314
_cell_formula_units_Z   2
loop_
 _symmetry_equiv_pos_site_id
 _symmetry_equiv_pos_as_xyz
  1  'x, y, z'
loop_
 _atom_site_type_symbol
 _atom_site_label
 _atom_site_symmetry_multiplicity
 _atom_site_fract_x
 _atom_site_fract_y
 _atom_site_fract_z
 _atom_site_occupancy
  Tl  Tl0  1  0.67392963  0.34779938  0.74999995  1
  Tl  Tl1  1  0.34779873  0.67392931  0.25000006  1
  Ga  Ga2  1  0.33504428  0.16805206  0.60650741  1
  Ga  Ga3  1  0.33504419  0.16805188  0.89349267  1
  Ga  Ga4  1  0.66794533  0.33394087  0.32487426  1
  Ga  Ga5  1  0.66684063  0.33348611  0.47590219  1
  Ga  Ga6  1  0.66794511  0.33394069  0.17512641  1
  Ga  Ga7  1  0.00055109  0.00055110  0.49999999  1
  Ga  Ga8  1  0.00055111  0.00055108  -0.00000001  1
  Ga  Ga9  1  0.66684063  0.33348614  0.02409776  1
  Ga  Ga10  1  0.83299074  0.16802519  0.89350714  1
  Ga  Ga11  1  0.83299059  0.16802512  0.60649281  1
  Ga  Ga12  1  0.83296881  0.66597841  0.89382670  1
  Ga  Ga13  1  0.83296893  0.66597836  0.60617313  1
  Ga  Ga14  1  0.16805200  0.33504416  0.10650743  1
  Ga  Ga15  1  0.16805196  0.33504429  0.39349271  1
  Ga  Ga16  1  0.16802509  0.83299064  0.10649285  1
  Ga  Ga17  1  0.33394083  0.66794528  0.82487369  1
  Ga  Ga18  1  0.33394079  0.66794523  0.67512584  1
  Ga  Ga19  1  0.33348613  0.66684063  0.52409778  1
  Ga  Ga20  1  0.33348613  0.66684059  0.97590222  1
  Ga  Ga21  1  0.16802521  0.83299071  0.39350718  1
  Ga  Ga22  1  0.66597835  0.83296879  0.39382673  1
  Ga  Ga23  1  0.66597851  0.83296899  0.10617318  1
  O  O24  1  0.31518705  0.15768748  0.45001502  1
  O  O25  1  0.31518712  0.15768749  0.04998497  1
  O  O26  1  0.50480142  0.00957415  0.64624559  1
  O  O27  1  0.50480150  0.00957438  0.85375447  1
  O  O28  1  0.66029311  0.33008451  0.24999938  1
  O  O29  1  0.84297372  0.15781147  0.04996845  1
  O  O30  1  0.66677861  0.33347579  0.55610700  1
  O  O31  1  0.00038715  0.00019982  0.35853605  1
  O  O32  1  0.00038714  0.00019976  0.14146394  1
  O  O33  1  0.00019974  0.00038711  0.85853607  1
  O  O34  1  0.00019975  0.00038711  0.64146394  1
  O  O35  1  0.66677884  0.33347604  0.94389299  1
  O  O36  1  0.50460766  0.49716596  0.64587454  1
  O  O37  1  0.84297388  0.15781156  0.45003158  1
  O  O38  1  0.50460743  0.49716569  0.85412550  1
  O  O39  1  0.15768756  0.31518710  0.95001504  1
  O  O40  1  0.15768751  0.31518709  0.54998498  1
  O  O41  1  0.99256416  0.49715304  0.64586402  1
  O  O42  1  0.99256410  0.49715300  0.85413598  1
  O  O43  1  0.00957419  0.50480143  0.35375445  1
  O  O44  1  0.00957425  0.50480145  0.14624555  1
  O  O45  1  0.84297033  0.68533644  0.45005328  1
  O  O46  1  0.84297026  0.68533639  0.04994674  1
  O  O47  1  0.49716594  0.50460766  0.14587451  1
  O  O48  1  0.33008452  0.66029316  0.75000042  1
  O  O49  1  0.33347580  0.66677858  0.05610702  1
  O  O50  1  0.49716578  0.50460745  0.35412546  1
  O  O51  1  0.15781149  0.84297378  0.54996844  1
  O  O52  1  0.15781158  0.84297380  0.95003157  1
  O  O53  1  0.33347608  0.66677889  0.44389302  1
  O  O54  1  0.49715304  0.99256422  0.35413594  1
  O  O55  1  0.49715296  0.99256395  0.14586401  1
  O  O56  1  0.68533639  0.84297029  0.95005328  1
  O  O57  1  0.68533645  0.84297030  0.54994674  1
