# generated using pymatgen
data_TlGaSiO4
_symmetry_space_group_name_H-M   'P 1'
_cell_length_a   9.17772328
_cell_length_b   9.17775892
_cell_length_c   9.17772245
_cell_angle_alpha   90.46237232
_cell_angle_beta   90.46191258
_cell_angle_gamma   90.46223036
_symmetry_Int_Tables_number   1
_chemical_formula_structural   TlGaSiO4
_chemical_formula_sum   'Tl6 Ga6 Si6 O24'
_cell_volume   772.97225472
_cell_formula_units_Z   6
loop_
 _symmetry_equiv_pos_site_id
 _symmetry_equiv_pos_as_xyz
  1  'x, y, z'
loop_
 _atom_site_type_symbol
 _atom_site_label
 _atom_site_symmetry_multiplicity
 _atom_site_fract_x
 _atom_site_fract_y
 _atom_site_fract_z
 _atom_site_occupancy
  Tl  Tl0  1  0.35531879  0.64793095  0.35077890  1
  Tl  Tl1  1  0.64793198  0.35077818  0.35531924  1
  Tl  Tl2  1  0.35077884  0.35531980  0.64793159  1
  Tl  Tl3  1  0.14793077  0.85531974  0.85077880  1
  Tl  Tl4  1  0.85077842  0.14793118  0.85531881  1
  Tl  Tl5  1  0.85531969  0.85077866  0.14793225  1
  Ga  Ga6  1  0.50302186  0.74914376  0.99255181  1
  Ga  Ga7  1  0.99255049  0.50301961  0.74914410  1
  Ga  Ga8  1  0.74914560  0.99255152  0.50301839  1
  Ga  Ga9  1  0.00301841  0.49255105  0.24914499  1
  Ga  Ga10  1  0.24914404  0.00302040  0.49255040  1
  Ga  Ga11  1  0.49255262  0.24914453  0.00302081  1
  Si  Si12  1  1.00081416  0.74807406  0.49955148  1
  Si  Si13  1  0.49958200  1.00081437  0.74806388  1
  Si  Si14  1  0.74807807  0.49955553  1.00082436  1
  Si  Si15  1  0.50082178  -0.00043052  0.24807482  1
  Si  Si16  1  0.24806643  0.50080885  -0.00042572  1
  Si  Si17  1  -0.00044898  0.24807344  0.50081650  1
  O  O18  1  0.65580454  0.63617405  0.93848070  1
  O  O19  1  0.93848173  0.65580734  0.63617113  1
  O  O20  1  0.63615109  0.93848692  0.65582337  1
  O  O21  1  0.34759255  0.63943942  0.06177130  1
  O  O22  1  0.06594001  0.65070191  0.36302998  1
  O  O23  1  0.36827399  0.93082085  0.34755490  1
  O  O24  1  0.65069920  0.36302700  0.06594008  1
  O  O25  1  0.93082187  0.34755038  0.36827952  1
  O  O26  1  0.63943195  0.06177014  0.34758580  1
  O  O27  1  0.34755212  0.36827742  0.93082131  1
  O  O28  1  0.06177158  0.34759157  0.63943864  1
  O  O29  1  0.36302074  0.06594266  0.65069474  1
  O  O30  1  0.15069648  0.56594228  0.86302205  1
  O  O31  1  0.43081946  0.86827261  0.84755593  1
  O  O32  1  0.13943913  0.84759193  0.56177154  1
  O  O33  1  0.84755365  0.43082132  0.86827536  1
  O  O34  1  0.56177014  0.13943592  0.84758948  1
  O  O35  1  0.86303084  0.15070232  0.56593997  1
  O  O36  1  0.15581955  0.43848652  0.13615539  1
  O  O37  1  0.43848388  0.13616448  0.15581190  1
  O  O38  1  0.13617201  0.15580638  0.43848162  1
  O  O39  1  0.84758615  0.56177014  0.13943261  1
  O  O40  1  0.56594164  0.86302221  0.15069572  1
  O  O41  1  0.86828070  0.84754914  0.43082153  1
