# generated using pymatgen
data_TlInF4
_symmetry_space_group_name_H-M   'P 1'
_cell_length_a   5.47433448
_cell_length_b   5.56808987
_cell_length_c   7.78678054
_cell_angle_alpha   112.97338987
_cell_angle_beta   110.58494312
_cell_angle_gamma   89.99877245
_symmetry_Int_Tables_number   1
_chemical_formula_structural   TlInF4
_chemical_formula_sum   'Tl2 In2 F8'
_cell_volume   201.96663501
_cell_formula_units_Z   2
loop_
 _symmetry_equiv_pos_site_id
 _symmetry_equiv_pos_as_xyz
  1  'x, y, z'
loop_
 _atom_site_type_symbol
 _atom_site_label
 _atom_site_symmetry_multiplicity
 _atom_site_fract_x
 _atom_site_fract_y
 _atom_site_fract_z
 _atom_site_occupancy
  Tl  Tl0  1  0.73476809  0.25000570  0.49999632  1
  Tl  Tl1  1  0.26523999  0.74999255  0.50000384  1
  In  In2  1  0.49998930  0.49998380  -0.00000040  1
  In  In3  1  -0.00003712  0.00000305  -0.00002520  1
  F  F4  1  0.76162292  0.71936484  0.28983474  1
  F  F5  1  0.97179469  0.78058876  0.71017626  1
  F  F6  1  0.23839336  0.28063584  0.71017119  1
  F  F7  1  0.02821342  0.21942954  0.28984955  1
  F  F8  1  0.21615271  0.72601617  0.09339372  1
  F  F9  1  0.62275087  0.77396386  0.90662052  1
  F  F10  1  0.78385139  0.27398242  0.90660103  1
  F  F11  1  0.37725937  0.22603346  0.09337844  1
