# generated using pymatgen
data_TlInSiO4
_symmetry_space_group_name_H-M   'P 1'
_cell_length_a   9.46876959
_cell_length_b   9.46876890
_cell_length_c   9.46876769
_cell_angle_alpha   90.43345701
_cell_angle_beta   90.43344654
_cell_angle_gamma   90.43345702
_symmetry_Int_Tables_number   1
_chemical_formula_structural   TlInSiO4
_chemical_formula_sum   'Tl6 In6 Si6 O24'
_cell_volume   848.87365072
_cell_formula_units_Z   6
loop_
 _symmetry_equiv_pos_site_id
 _symmetry_equiv_pos_as_xyz
  1  'x, y, z'
loop_
 _atom_site_type_symbol
 _atom_site_label
 _atom_site_symmetry_multiplicity
 _atom_site_fract_x
 _atom_site_fract_y
 _atom_site_fract_z
 _atom_site_occupancy
  Tl  Tl0  1  0.36321748  0.64229111  0.34663950  1
  Tl  Tl1  1  0.64229138  0.34663957  0.36321757  1
  Tl  Tl2  1  0.34663965  0.36321746  0.64229121  1
  Tl  Tl3  1  0.14229117  0.86321737  0.84663968  1
  Tl  Tl4  1  0.84663958  0.14229136  0.86321753  1
  Tl  Tl5  1  0.86321745  0.84663954  0.14229115  1
  In  In6  1  0.50505102  0.75195745  0.98308876  1
  In  In7  1  0.98308856  0.50505090  0.75195759  1
  In  In8  1  0.75195758  0.98308871  0.50505102  1
  In  In9  1  0.00505089  0.48308864  0.25195762  1
  In  In10  1  0.25195748  0.00505093  0.48308861  1
  In  In11  1  0.48308881  0.25195756  0.00505110  1
  Si  Si12  1  0.00853282  0.74598514  0.49586953  1
  Si  Si13  1  0.49587001  0.00853266  0.74598518  1
  Si  Si14  1  0.74598543  0.49586931  0.00853312  1
  Si  Si15  1  0.50853301  -0.00413044  0.24598539  1
  Si  Si16  1  0.24598507  0.50853261  -0.00413006  1
  Si  Si17  1  -0.00413082  0.24598532  0.50853312  1
  O  O18  1  0.66116186  0.61924249  0.92496795  1
  O  O19  1  0.92496840  0.66116210  0.61924233  1
  O  O20  1  0.61924208  0.92496842  0.66116221  1
  O  O21  1  0.34281711  0.63483923  0.07164003  1
  O  O22  1  0.08679087  0.64782835  0.37482514  1
  O  O23  1  0.38997764  0.91221012  0.34383565  1
  O  O24  1  0.64782836  0.37482528  0.08679100  1
  O  O25  1  0.91220997  0.34383581  0.38997777  1
  O  O26  1  0.63483910  0.07163986  0.34281693  1
  O  O27  1  0.34383576  0.38997763  0.91221008  1
  O  O28  1  0.07164001  0.34281718  0.63483907  1
  O  O29  1  0.37482491  0.08679107  0.64782827  1
  O  O30  1  0.14782833  0.58679106  0.87482500  1
  O  O31  1  0.41221008  0.88997756  0.84383565  1
  O  O32  1  0.13483921  0.84281715  0.57164001  1
  O  O33  1  0.84383577  0.41221001  0.88997779  1
  O  O34  1  0.57163985  0.13483929  0.84281710  1
  O  O35  1  0.87482540  0.14782848  0.58679090  1
  O  O36  1  0.16116224  0.42496852  0.11924217  1
  O  O37  1  0.42496818  0.11924244  0.16116188  1
  O  O38  1  0.11924247  0.16116193  0.42496806  1
  O  O39  1  0.84281709  0.57164005  0.13483898  1
  O  O40  1  0.58679096  0.87482506  0.14782831  1
  O  O41  1  0.88997778  0.84383573  0.41221008  1
