# generated using pymatgen
data_TlIO3
_symmetry_space_group_name_H-M   'P 1'
_cell_length_a   6.21323662
_cell_length_b   7.65087159
_cell_length_c   16.85668241
_cell_angle_alpha   89.99999722
_cell_angle_beta   90.00000600
_cell_angle_gamma   89.99999193
_symmetry_Int_Tables_number   1
_chemical_formula_structural   TlIO3
_chemical_formula_sum   'Tl8 I8 O24'
_cell_volume   801.31064237
_cell_formula_units_Z   8
loop_
 _symmetry_equiv_pos_site_id
 _symmetry_equiv_pos_as_xyz
  1  'x, y, z'
loop_
 _atom_site_type_symbol
 _atom_site_label
 _atom_site_symmetry_multiplicity
 _atom_site_fract_x
 _atom_site_fract_y
 _atom_site_fract_z
 _atom_site_occupancy
  Tl  Tl0  1  0.01284949  0.60570156  0.69299008  1
  Tl  Tl1  1  0.51284931  0.39429845  0.30700987  1
  Tl  Tl2  1  0.01284949  0.39429846  0.19299010  1
  Tl  Tl3  1  0.51284928  0.60570150  0.80700985  1
  Tl  Tl4  1  -0.01334928  0.11547849  0.70017045  1
  Tl  Tl5  1  0.48665091  0.88452154  0.29982954  1
  Tl  Tl6  1  -0.01334921  0.88452146  0.20017051  1
  Tl  Tl7  1  0.48665088  0.11547858  0.79982947  1
  I  I8  1  0.59885490  0.86071241  0.57438441  1
  I  I9  1  0.09885475  0.13928743  0.42561550  1
  I  I10  1  0.59885500  0.13928748  0.07438449  1
  I  I11  1  0.09885481  0.86071254  0.92561539  1
  I  I12  1  0.51830300  0.35544963  0.58111755  1
  I  I13  1  0.01830307  0.64455045  0.41888251  1
  I  I14  1  0.51830296  0.64455050  0.08111761  1
  I  I15  1  0.01830296  0.35544956  0.91888244  1
  O  O16  1  0.18318150  0.36984263  0.82695975  1
  O  O17  1  0.68318160  0.63015712  0.17304028  1
  O  O18  1  0.18318199  0.63015740  0.32695993  1
  O  O19  1  0.68318192  0.36984287  0.67304015  1
  O  O20  1  0.11877242  0.85878299  0.81713138  1
  O  O21  1  0.61877242  0.14121702  0.18286850  1
  O  O22  1  0.11877266  0.14121694  0.31713150  1
  O  O23  1  0.61877250  0.85878304  0.68286842  1
  O  O24  1  0.26543221  0.05350368  0.94745149  1
  O  O25  1  0.76543227  0.94649634  0.05254853  1
  O  O26  1  0.26543206  0.94649644  0.44745172  1
  O  O27  1  0.76543210  0.05350365  0.55254833  1
  O  O28  1  0.83449468  0.18214158  0.88619155  1
  O  O29  1  0.33449469  0.81785823  0.11380859  1
  O  O30  1  0.83449497  0.81785835  0.38619156  1
  O  O31  1  0.33449480  0.18214178  0.61380859  1
  O  O32  1  0.34811445  0.55010508  0.59491358  1
  O  O33  1  0.84811436  0.44989503  0.40508639  1
  O  O34  1  0.34811437  0.44989492  0.09491353  1
  O  O35  1  0.84811423  0.55010491  0.90508647  1
  O  O36  1  0.79694738  0.68721083  0.55298383  1
  O  O37  1  0.29694724  0.31278903  0.44701614  1
  O  O38  1  0.79694758  0.31278903  0.05298389  1
  O  O39  1  0.29694732  0.68721109  0.94701608  1
