# generated using pymatgen
data_V2BiS4
_symmetry_space_group_name_H-M   'P 1'
_cell_length_a   8.00725811
_cell_length_b   8.00756330
_cell_length_c   11.75100234
_cell_angle_alpha   90.00000931
_cell_angle_beta   89.99999096
_cell_angle_gamma   89.99988086
_symmetry_Int_Tables_number   1
_chemical_formula_structural   V2BiS4
_chemical_formula_sum   'V8 Bi4 S16'
_cell_volume   753.45812622
_cell_formula_units_Z   4
loop_
 _symmetry_equiv_pos_site_id
 _symmetry_equiv_pos_as_xyz
  1  'x, y, z'
loop_
 _atom_site_type_symbol
 _atom_site_label
 _atom_site_symmetry_multiplicity
 _atom_site_fract_x
 _atom_site_fract_y
 _atom_site_fract_z
 _atom_site_occupancy
  V  V0  1  0.00000000  0.50000011  0.75000092  1
  V  V1  1  -0.00000010  0.49999997  -0.00000081  1
  V  V2  1  -0.00000009  0.49999999  0.24999863  1
  V  V3  1  0.49999996  0.00000001  0.50000363  1
  V  V4  1  0.50000003  0.00000001  0.24999825  1
  V  V5  1  0.50000009  -0.00000014  0.75000243  1
  V  V6  1  0.00000007  0.50000016  0.50000056  1
  V  V7  1  0.50000009  -0.00000004  -0.00000293  1
  Bi  Bi8  1  0.50000001  0.50000003  0.63033251  1
  Bi  Bi9  1  0.00000004  0.00000001  0.86966734  1
  Bi  Bi10  1  0.50000009  0.50000000  0.36966933  1
  Bi  Bi11  1  -0.00000006  0.00000001  0.13033136  1
  S  S12  1  0.86061361  0.33400796  0.87512276  1
  S  S13  1  0.63938749  0.83401081  0.37511528  1
  S  S14  1  0.33400739  0.86060808  0.12487978  1
  S  S15  1  0.83400140  0.63939367  0.62487410  1
  S  S16  1  0.36061256  0.16598936  0.37511529  1
  S  S17  1  0.13938634  0.66599218  0.87512273  1
  S  S18  1  0.83400297  0.36060810  0.37512981  1
  S  S19  1  0.66599267  0.13939196  0.12487971  1
  S  S20  1  0.63939107  0.16599186  0.62489023  1
  S  S21  1  0.16599866  0.36060660  0.62487398  1
  S  S22  1  0.66599516  0.86060428  0.87511508  1
  S  S23  1  0.33400462  0.13939535  0.87511528  1
  S  S24  1  0.16599719  0.63939188  0.37512973  1
  S  S25  1  0.13938548  0.33400935  0.12487226  1
  S  S26  1  0.86061437  0.66599042  0.12487244  1
  S  S27  1  0.36060887  0.83400804  0.62489030  1
