# generated using pymatgen
data_V2BiSe4
_symmetry_space_group_name_H-M   'P 1'
_cell_length_a   8.30990879
_cell_length_b   8.31020610
_cell_length_c   12.20310405
_cell_angle_alpha   90.00000564
_cell_angle_beta   90.00000132
_cell_angle_gamma   90.00001441
_symmetry_Int_Tables_number   1
_chemical_formula_structural   V2BiSe4
_chemical_formula_sum   'V8 Bi4 Se16'
_cell_volume   842.71042410
_cell_formula_units_Z   4
loop_
 _symmetry_equiv_pos_site_id
 _symmetry_equiv_pos_as_xyz
  1  'x, y, z'
loop_
 _atom_site_type_symbol
 _atom_site_label
 _atom_site_symmetry_multiplicity
 _atom_site_fract_x
 _atom_site_fract_y
 _atom_site_fract_z
 _atom_site_occupancy
  V  V0  1  0.00000005  0.49999997  0.75000211  1
  V  V1  1  0.00000002  0.50000005  0.00000211  1
  V  V2  1  -0.00000001  0.49999996  0.24999783  1
  V  V3  1  0.50000000  0.00000002  0.49999721  1
  V  V4  1  0.50000001  0.00000000  0.25000043  1
  V  V5  1  0.49999997  -0.00000003  0.74999944  1
  V  V6  1  0.00000002  0.49999996  0.49999791  1
  V  V7  1  0.50000002  -0.00000000  0.00000270  1
  Bi  Bi8  1  -0.00000003  -0.00000001  0.87467166  1
  Bi  Bi9  1  0.49999998  0.50000000  0.62532835  1
  Bi  Bi10  1  0.50000001  0.49999999  0.37466738  1
  Bi  Bi11  1  -0.00000000  0.00000001  0.12533233  1
  Se  Se12  1  0.33193813  0.14912639  0.87540259  1
  Se  Se13  1  0.35087437  0.16806356  0.37539259  1
  Se  Se14  1  0.83193586  0.35087223  0.37539916  1
  Se  Se15  1  0.66806190  0.85087361  0.87540253  1
  Se  Se16  1  0.35087745  0.83194059  0.62460130  1
  Se  Se17  1  0.14912432  0.33193675  0.12460337  1
  Se  Se18  1  0.33193377  0.85087068  0.12460371  1
  Se  Se19  1  0.85087765  0.33193996  0.87540241  1
  Se  Se20  1  0.85087567  0.66806336  0.12460337  1
  Se  Se21  1  0.64912254  0.16805946  0.62460131  1
  Se  Se22  1  0.14912243  0.66806004  0.87540240  1
  Se  Se23  1  0.64912554  0.83193648  0.37539257  1
  Se  Se24  1  0.16806411  0.64912776  0.37539917  1
  Se  Se25  1  0.83193936  0.64912580  0.62459519  1
  Se  Se26  1  0.16806062  0.35087406  0.62459517  1
  Se  Se27  1  0.66806623  0.14912936  0.12460370  1
