# generated using pymatgen
data_V2HgSe4
_symmetry_space_group_name_H-M   'P 1'
_cell_length_a   5.85418317
_cell_length_b   5.85417260
_cell_length_c   6.98946274
_cell_angle_alpha   114.75869447
_cell_angle_beta   114.75881080
_cell_angle_gamma   89.99975186
_symmetry_Int_Tables_number   1
_chemical_formula_structural   V2HgSe4
_chemical_formula_sum   'V2 Hg1 Se4'
_cell_volume   193.00592299
_cell_formula_units_Z   1
loop_
 _symmetry_equiv_pos_site_id
 _symmetry_equiv_pos_as_xyz
  1  'x, y, z'
loop_
 _atom_site_type_symbol
 _atom_site_label
 _atom_site_symmetry_multiplicity
 _atom_site_fract_x
 _atom_site_fract_y
 _atom_site_fract_z
 _atom_site_occupancy
  V  V0  1  0.24999768  0.74999900  0.50000040  1
  V  V1  1  0.50000094  0.49999993  -0.00000243  1
  Hg  Hg2  1  -0.00000051  -0.00000008  0.00000048  1
  Se  Se3  1  0.14021996  0.13263489  0.72750555  1
  Se  Se4  1  0.58728292  0.59486761  0.72750588  1
  Se  Se5  1  0.86736386  0.41271680  0.27249519  1
  Se  Se6  1  0.40513415  0.85978286  0.27249493  1
