# generated using pymatgen
data_V2PbSe4
_symmetry_space_group_name_H-M   'P 1'
_cell_length_a   6.32531786
_cell_length_b   6.32534252
_cell_length_c   11.07908964
_cell_angle_alpha   90.00000765
_cell_angle_beta   89.99999805
_cell_angle_gamma   121.40904343
_symmetry_Int_Tables_number   1
_chemical_formula_structural   V2PbSe4
_chemical_formula_sum   'V4 Pb2 Se8'
_cell_volume   378.31886795
_cell_formula_units_Z   2
loop_
 _symmetry_equiv_pos_site_id
 _symmetry_equiv_pos_as_xyz
  1  'x, y, z'
loop_
 _atom_site_type_symbol
 _atom_site_label
 _atom_site_symmetry_multiplicity
 _atom_site_fract_x
 _atom_site_fract_y
 _atom_site_fract_z
 _atom_site_occupancy
  V  V0  1  0.24423595  0.75485580  0.00000001  1
  V  V1  1  0.24514254  0.75576193  0.49999999  1
  V  V2  1  0.75485806  0.24423887  0.50000003  1
  V  V3  1  0.75576392  0.24514276  -0.00000003  1
  Pb  Pb4  1  0.49999959  0.49999970  0.24999972  1
  Pb  Pb5  1  0.49999962  0.49999970  0.75000025  1
  Se  Se6  1  0.00000037  0.50000069  0.16733768  1
  Se  Se7  1  0.17897432  0.34288327  0.50000001  1
  Se  Se8  1  0.49999740  -0.00000101  0.33266351  1
  Se  Se9  1  0.34287733  0.17896615  -0.00000000  1
  Se  Se10  1  0.65712081  0.82102850  0.00000001  1
  Se  Se11  1  0.49999731  -0.00000101  0.66733649  1
  Se  Se12  1  0.82103238  0.65712392  0.50000002  1
  Se  Se13  1  0.00000041  0.50000073  0.83266232  1
