# generated using pymatgen
data_VAgSe2
_symmetry_space_group_name_H-M   'P 1'
_cell_length_a   5.89565606
_cell_length_b   5.89565340
_cell_length_c   7.17228839
_cell_angle_alpha   114.26584108
_cell_angle_beta   114.26587015
_cell_angle_gamma   90.00127441
_symmetry_Int_Tables_number   1
_chemical_formula_structural   VAgSe2
_chemical_formula_sum   'V2 Ag2 Se4'
_cell_volume   202.86901992
_cell_formula_units_Z   2
loop_
 _symmetry_equiv_pos_site_id
 _symmetry_equiv_pos_as_xyz
  1  'x, y, z'
loop_
 _atom_site_type_symbol
 _atom_site_label
 _atom_site_symmetry_multiplicity
 _atom_site_fract_x
 _atom_site_fract_y
 _atom_site_fract_z
 _atom_site_occupancy
  V  V0  1  0.49999741  0.49999446  0.00000387  1
  V  V1  1  0.74999626  0.24999868  0.50000335  1
  Ag  Ag2  1  0.24999950  0.74999878  0.50000187  1
  Ag  Ag3  1  -0.00000101  -0.00000060  0.00000204  1
  Se  Se4  1  0.84077277  0.87500207  0.24999967  1
  Se  Se5  1  0.62500299  0.15923149  0.74999632  1
  Se  Se6  1  0.40923231  0.37500336  0.24999447  1
  Se  Se7  1  0.12499977  0.59077176  0.74999841  1
