# generated using pymatgen
data_VAgS2
_symmetry_space_group_name_H-M   'P 1'
_cell_length_a   5.62288944
_cell_length_b   5.62288686
_cell_length_c   6.78915582
_cell_angle_alpha   114.46047738
_cell_angle_beta   114.46045033
_cell_angle_gamma   90.00001239
_symmetry_Int_Tables_number   1
_chemical_formula_structural   VAgS2
_chemical_formula_sum   'V2 Ag2 S4'
_cell_volume   174.00044543
_cell_formula_units_Z   2
loop_
 _symmetry_equiv_pos_site_id
 _symmetry_equiv_pos_as_xyz
  1  'x, y, z'
loop_
 _atom_site_type_symbol
 _atom_site_label
 _atom_site_symmetry_multiplicity
 _atom_site_fract_x
 _atom_site_fract_y
 _atom_site_fract_z
 _atom_site_occupancy
  V  V0  1  0.49999727  0.50000409  -0.00000090  1
  V  V1  1  0.75000451  0.24999763  0.49999931  1
  Ag  Ag2  1  0.25000438  0.75000658  0.50000020  1
  Ag  Ag3  1  0.00000663  0.00000445  0.00000036  1
  S  S4  1  0.83600635  0.87499761  0.25000207  1
  S  S5  1  0.62499179  0.16398826  0.74999835  1
  S  S6  1  0.41398717  0.37499349  0.24999618  1
  S  S7  1  0.12500190  0.58600789  0.75000443  1
