# generated using pymatgen
data_VBiCl6
_symmetry_space_group_name_H-M   'P 1'
_cell_length_a   12.44067637
_cell_length_b   8.08175739
_cell_length_c   10.96564916
_cell_angle_alpha   82.74741141
_cell_angle_beta   90.00004639
_cell_angle_gamma   89.99998357
_symmetry_Int_Tables_number   1
_chemical_formula_structural   VBiCl6
_chemical_formula_sum   'V4 Bi4 Cl24'
_cell_volume   1093.69314725
_cell_formula_units_Z   4
loop_
 _symmetry_equiv_pos_site_id
 _symmetry_equiv_pos_as_xyz
  1  'x, y, z'
loop_
 _atom_site_type_symbol
 _atom_site_label
 _atom_site_symmetry_multiplicity
 _atom_site_fract_x
 _atom_site_fract_y
 _atom_site_fract_z
 _atom_site_occupancy
  V  V0  1  0.77343699  0.49787057  0.71976934  1
  V  V1  1  0.72656253  0.49787156  0.21976863  1
  V  V2  1  0.27343658  0.50212836  0.78023104  1
  V  V3  1  0.22656374  0.50213044  0.28022971  1
  Bi  Bi4  1  0.96293613  0.18912146  0.35192803  1
  Bi  Bi5  1  0.53706387  0.18912144  0.85192798  1
  Bi  Bi6  1  0.03706390  0.81087843  0.64807217  1
  Bi  Bi7  1  0.46293612  0.81087859  0.14807218  1
  Cl  Cl8  1  0.43312269  0.00194209  0.30079170  1
  Cl  Cl9  1  0.90279100  0.51622272  0.18351379  1
  Cl  Cl10  1  0.65238547  0.70592847  0.30887164  1
  Cl  Cl11  1  0.12933138  0.49585266  0.45050202  1
  Cl  Cl12  1  0.87066852  0.50414742  0.54949820  1
  Cl  Cl13  1  0.06687720  0.00194207  0.80079163  1
  Cl  Cl14  1  0.37066849  0.49585236  0.95050190  1
  Cl  Cl15  1  0.09720947  0.48377727  0.81648612  1
  Cl  Cl16  1  0.15238546  0.29407166  0.19112826  1
  Cl  Cl17  1  0.40279050  0.48377756  0.31648604  1
  Cl  Cl18  1  0.59720938  0.51622252  0.68351407  1
  Cl  Cl19  1  0.62933152  0.50414751  0.04949828  1
  Cl  Cl20  1  0.63109622  0.98930419  0.04014254  1
  Cl  Cl21  1  0.72398381  0.24963532  0.33626739  1
  Cl  Cl22  1  0.22398393  0.75036490  0.16373264  1
  Cl  Cl23  1  0.36890379  0.01069609  0.95985750  1
  Cl  Cl24  1  0.27601600  0.75036394  0.66373296  1
  Cl  Cl25  1  0.93312270  0.99805815  0.19920843  1
  Cl  Cl26  1  0.34761475  0.29407068  0.69112793  1
  Cl  Cl27  1  0.77601614  0.24963475  0.83626768  1
  Cl  Cl28  1  0.13109621  0.01069599  0.45985754  1
  Cl  Cl29  1  0.84761448  0.70592853  0.80887181  1
  Cl  Cl30  1  0.56687730  0.99805809  0.69920839  1
  Cl  Cl31  1  0.86890374  0.98930423  0.54014246  1
