# generated using pymatgen
data_VCr4CuS8
_symmetry_space_group_name_H-M   'P 1'
_cell_length_a   7.04730434
_cell_length_b   7.04729804
_cell_length_c   7.04731286
_cell_angle_alpha   60.00005160
_cell_angle_beta   60.00006379
_cell_angle_gamma   59.99997050
_symmetry_Int_Tables_number   1
_chemical_formula_structural   VCr4CuS8
_chemical_formula_sum   'V1 Cr4 Cu1 S8'
_cell_volume   247.48820297
_cell_formula_units_Z   1
loop_
 _symmetry_equiv_pos_site_id
 _symmetry_equiv_pos_as_xyz
  1  'x, y, z'
loop_
 _atom_site_type_symbol
 _atom_site_label
 _atom_site_symmetry_multiplicity
 _atom_site_fract_x
 _atom_site_fract_y
 _atom_site_fract_z
 _atom_site_occupancy
  V  V0  1  0.49999942  0.50000068  0.50000011  1
  Cr  Cr1  1  0.63390882  0.12202997  0.12202995  1
  Cr  Cr2  1  0.12202992  0.63390879  0.12202999  1
  Cr  Cr3  1  0.12203015  0.12202999  0.63390857  1
  Cr  Cr4  1  0.12203034  0.12203022  0.12203018  1
  Cu  Cu5  1  0.74999991  0.74999972  0.74999998  1
  S  S6  1  0.34942651  0.88352431  0.88352446  1
  S  S7  1  0.88352442  0.34942637  0.88352445  1
  S  S8  1  0.88352430  0.88352437  0.34942632  1
  S  S9  1  0.88352424  0.88352433  0.88352470  1
  S  S10  1  0.90148678  0.36617085  0.36617088  1
  S  S11  1  0.36617103  0.90148673  0.36617083  1
  S  S12  1  0.36617106  0.36617081  0.90148676  1
  S  S13  1  0.36617109  0.36617085  0.36617080  1
