# generated using pymatgen
data_VCuBr4
_symmetry_space_group_name_H-M   'P 1'
_cell_length_a   5.88245156
_cell_length_b   5.88243000
_cell_length_c   10.86920865
_cell_angle_alpha   90.00000547
_cell_angle_beta   90.00000313
_cell_angle_gamma   90.00000789
_symmetry_Int_Tables_number   1
_chemical_formula_structural   VCuBr4
_chemical_formula_sum   'V2 Cu2 Br8'
_cell_volume   376.10841742
_cell_formula_units_Z   2
loop_
 _symmetry_equiv_pos_site_id
 _symmetry_equiv_pos_as_xyz
  1  'x, y, z'
loop_
 _atom_site_type_symbol
 _atom_site_label
 _atom_site_symmetry_multiplicity
 _atom_site_fract_x
 _atom_site_fract_y
 _atom_site_fract_z
 _atom_site_occupancy
  V  V0  1  -0.00000002  0.49999981  0.74999945  1
  V  V1  1  0.50000021  0.00000007  0.25000043  1
  Cu  Cu2  1  0.50000000  0.50000002  0.00000000  1
  Cu  Cu3  1  0.49999994  0.49999999  0.50000001  1
  Br  Br4  1  0.23992367  0.73364982  0.87618401  1
  Br  Br5  1  0.76007628  0.26635032  0.87618400  1
  Br  Br6  1  0.23992692  0.26635481  0.62381435  1
  Br  Br7  1  0.76007289  0.73364521  0.62381430  1
  Br  Br8  1  0.73364891  0.76007698  0.12381645  1
  Br  Br9  1  0.26635120  0.23992308  0.12381646  1
  Br  Br10  1  0.26635559  0.76007357  0.37618522  1
  Br  Br11  1  0.73364440  0.23992633  0.37618531  1
