# generated using pymatgen
data_VCuGeSe4
_symmetry_space_group_name_H-M   'P 1'
_cell_length_a   5.55300767
_cell_length_b   5.55300519
_cell_length_c   6.76760442
_cell_angle_alpha   65.77510896
_cell_angle_beta   65.77525308
_cell_angle_gamma   90.00047521
_symmetry_Int_Tables_number   1
_chemical_formula_structural   VCuGeSe4
_chemical_formula_sum   'V1 Cu1 Ge1 Se4'
_cell_volume   169.95667905
_cell_formula_units_Z   1
loop_
 _symmetry_equiv_pos_site_id
 _symmetry_equiv_pos_as_xyz
  1  'x, y, z'
loop_
 _atom_site_type_symbol
 _atom_site_label
 _atom_site_symmetry_multiplicity
 _atom_site_fract_x
 _atom_site_fract_y
 _atom_site_fract_z
 _atom_site_occupancy
  V  V0  1  0.25001577  0.75001128  0.49999261  1
  Cu  Cu1  1  0.00000855  0.00000691  -0.00000397  1
  Ge  Ge2  1  0.50000355  0.50001029  -0.00000390  1
  Se  Se3  1  0.38957988  0.89240001  0.73683716  1
  Se  Se4  1  0.87357219  0.37075954  0.73685306  1
  Se  Se5  1  0.10759765  0.12640050  0.26316368  1
  Se  Se6  1  0.62922240  0.61041148  0.26316136  1
