# generated using pymatgen
data_VCuSe2
_symmetry_space_group_name_H-M   'P 1'
_cell_length_a   5.57727028
_cell_length_b   5.57727073
_cell_length_c   6.94096741
_cell_angle_alpha   113.68626324
_cell_angle_beta   113.68623285
_cell_angle_gamma   90.00568297
_symmetry_Int_Tables_number   1
_chemical_formula_structural   VCuSe2
_chemical_formula_sum   'V2 Cu2 Se4'
_cell_volume   177.67282442
_cell_formula_units_Z   2
loop_
 _symmetry_equiv_pos_site_id
 _symmetry_equiv_pos_as_xyz
  1  'x, y, z'
loop_
 _atom_site_type_symbol
 _atom_site_label
 _atom_site_symmetry_multiplicity
 _atom_site_fract_x
 _atom_site_fract_y
 _atom_site_fract_z
 _atom_site_occupancy
  V  V0  1  0.74998941  0.24999015  0.49999033  1
  V  V1  1  0.49999017  0.49998916  -0.00000951  1
  Cu  Cu2  1  0.24999434  0.74999368  0.49999102  1
  Cu  Cu3  1  -0.00000623  -0.00000553  -0.00000893  1
  Se  Se4  1  0.37333277  0.37501010  0.25000395  1
  Se  Se5  1  0.12501500  0.62668333  0.75001459  1
  Se  Se6  1  0.62500659  0.12333799  0.75001457  1
  Se  Se7  1  0.87667794  0.87500112  0.25000397  1
