# generated using pymatgen
data_VCuSnSe4
_symmetry_space_group_name_H-M   'P 1'
_cell_length_a   6.96818956
_cell_length_b   6.96804079
_cell_length_c   6.96808709
_cell_angle_alpha   132.18269572
_cell_angle_beta   132.18620088
_cell_angle_gamma   69.93950907
_symmetry_Int_Tables_number   1
_chemical_formula_structural   VCuSnSe4
_chemical_formula_sum   'V1 Cu1 Sn1 Se4'
_cell_volume   182.14144123
_cell_formula_units_Z   1
loop_
 _symmetry_equiv_pos_site_id
 _symmetry_equiv_pos_as_xyz
  1  'x, y, z'
loop_
 _atom_site_type_symbol
 _atom_site_label
 _atom_site_symmetry_multiplicity
 _atom_site_fract_x
 _atom_site_fract_y
 _atom_site_fract_z
 _atom_site_occupancy
  V  V0  1  0.75000650  0.25000345  0.50000176  1
  Cu  Cu1  1  0.25000494  0.75000520  0.50000232  1
  Sn  Sn2  1  0.50000635  0.50000212  0.00000213  1
  Se  Se3  1  0.09655679  0.09925159  0.45559686  1
  Se  Se4  1  0.64365281  0.64096332  0.54440396  1
  Se  Se5  1  0.35902415  0.90344430  0.00269378  1
  Se  Se6  1  0.90074846  0.35633002  0.99729919  1
