# generated using pymatgen
data_VH3NCl3
_symmetry_space_group_name_H-M   'P 1'
_cell_length_a   10.43545325
_cell_length_b   10.30667545
_cell_length_c   12.07854624
_cell_angle_alpha   89.99998024
_cell_angle_beta   89.99996510
_cell_angle_gamma   89.99997884
_symmetry_Int_Tables_number   1
_chemical_formula_structural   VH3NCl3
_chemical_formula_sum   'V8 H24 N8 Cl24'
_cell_volume   1299.10598533
_cell_formula_units_Z   8
loop_
 _symmetry_equiv_pos_site_id
 _symmetry_equiv_pos_as_xyz
  1  'x, y, z'
loop_
 _atom_site_type_symbol
 _atom_site_label
 _atom_site_symmetry_multiplicity
 _atom_site_fract_x
 _atom_site_fract_y
 _atom_site_fract_z
 _atom_site_occupancy
  V  V0  1  0.17685672  0.59626189  0.67103783  1
  V  V1  1  0.17685646  0.90373792  0.17103792  1
  V  V2  1  0.32314304  0.09626177  0.67103784  1
  V  V3  1  0.32314247  0.40373785  0.17103785  1
  V  V4  1  0.67685684  0.59626192  0.82896207  1
  V  V5  1  0.67685706  0.90373838  0.32896175  1
  V  V6  1  0.82314406  0.09626244  0.82896263  1
  V  V7  1  0.82314282  0.40373846  0.32896176  1
  H  H8  1  0.98091538  0.74841055  0.13727819  1
  H  H9  1  0.98091543  0.75158924  0.63727824  1
  H  H10  1  0.03566875  0.79563936  0.01575709  1
  H  H11  1  0.03566896  0.70436039  0.51575720  1
  H  H12  1  0.10695592  0.67615094  0.08286463  1
  H  H13  1  0.10695602  0.82384882  0.58286470  1
  H  H14  1  0.39304397  0.17615100  0.08286471  1
  H  H15  1  0.39304403  0.32384887  0.58286469  1
  H  H16  1  0.46433114  0.20436040  0.51575717  1
  H  H17  1  0.46433111  0.29563956  0.01575718  1
  H  H18  1  0.51908428  0.24841080  0.13727836  1
  H  H19  1  0.51908444  0.25158908  0.63727821  1
  H  H20  1  0.48091555  0.74841088  0.36272176  1
  H  H21  1  0.48091560  0.75158915  0.86272169  1
  H  H22  1  0.53566903  0.70436014  0.98424274  1
  H  H23  1  0.53566894  0.79563964  0.48424282  1
  H  H24  1  0.60695612  0.67615113  0.41713527  1
  H  H25  1  0.60695613  0.82384877  0.91713523  1
  H  H26  1  0.89304396  0.17615104  0.41713537  1
  H  H27  1  0.89304442  0.32384929  0.91713559  1
  H  H28  1  0.96433145  0.20436082  0.98424307  1
  H  H29  1  0.96433102  0.29563945  0.48424287  1
  H  H30  1  0.01908491  0.25158969  0.86272208  1
  H  H31  1  0.01908449  0.24841069  0.36272180  1
  N  N32  1  0.06368313  0.76525186  0.09319735  1
  N  N33  1  0.06368320  0.73474797  0.59319743  1
  N  N34  1  0.43631670  0.23474789  0.59319741  1
  N  N35  1  0.43631660  0.26525197  0.09319741  1
  N  N36  1  0.56368330  0.76525206  0.40680256  1
  N  N37  1  0.56368335  0.73474789  0.90680251  1
  N  N38  1  0.93631711  0.23474834  0.90680282  1
  N  N39  1  0.93631669  0.26525198  0.40680261  1
  Cl  Cl40  1  0.05026798  0.07680970  0.16932791  1
  Cl  Cl41  1  0.05026811  0.42319050  0.66932810  1
  Cl  Cl42  1  0.15183705  0.43653391  0.06679065  1
  Cl  Cl43  1  0.15183736  0.06346613  0.56679082  1
  Cl  Cl44  1  0.22652398  0.67717498  0.83504627  1
  Cl  Cl45  1  0.22652416  0.82282475  0.33504619  1
  Cl  Cl46  1  0.27347571  0.17717515  0.83504632  1
  Cl  Cl47  1  0.27347560  0.32282481  0.33504622  1
  Cl  Cl48  1  0.34816259  0.56346608  0.56679080  1
  Cl  Cl49  1  0.34816238  0.93653369  0.06679078  1
  Cl  Cl50  1  0.44973152  0.57680927  0.16932791  1
  Cl  Cl51  1  0.44973182  0.92319041  0.66932814  1
  Cl  Cl52  1  0.55026818  0.07680958  0.33067190  1
  Cl  Cl53  1  0.55026820  0.42319055  0.83067200  1
  Cl  Cl54  1  0.65183741  0.43653385  0.43320916  1
  Cl  Cl55  1  0.65183783  0.06346644  0.93320933  1
  Cl  Cl56  1  0.72652423  0.67717512  0.66495364  1
  Cl  Cl57  1  0.72652440  0.82282470  0.16495345  1
  Cl  Cl58  1  0.77347575  0.32282476  0.16495347  1
  Cl  Cl59  1  0.77347614  0.17717529  0.66495409  1
  Cl  Cl60  1  0.84816252  0.56346611  0.93320917  1
  Cl  Cl61  1  0.84816239  0.93653387  0.43320906  1
  Cl  Cl62  1  0.94973221  0.92319053  0.83067223  1
  Cl  Cl63  1  0.94973183  0.57680956  0.33067196  1
