# generated using pymatgen
data_VPS4
_symmetry_space_group_name_H-M   'P 1'
_cell_length_a   5.95467918
_cell_length_b   5.95207074
_cell_length_c   10.19530693
_cell_angle_alpha   89.99727308
_cell_angle_beta   89.99930869
_cell_angle_gamma   90.00097356
_symmetry_Int_Tables_number   1
_chemical_formula_structural   VPS4
_chemical_formula_sum   'V2 P2 S8'
_cell_volume   361.34891629
_cell_formula_units_Z   2
loop_
 _symmetry_equiv_pos_site_id
 _symmetry_equiv_pos_as_xyz
  1  'x, y, z'
loop_
 _atom_site_type_symbol
 _atom_site_label
 _atom_site_symmetry_multiplicity
 _atom_site_fract_x
 _atom_site_fract_y
 _atom_site_fract_z
 _atom_site_occupancy
  V  V0  1  0.49998875  0.49999619  0.74999509  1
  V  V1  1  0.50002353  0.50000577  0.24999440  1
  P  P2  1  0.00000748  0.49998016  0.75000321  1
  P  P3  1  0.50000654  0.00000311  0.24999518  1
  S  S4  1  0.21903603  0.31096286  0.63881312  1
  S  S5  1  0.78098033  0.68906153  0.63881935  1
  S  S6  1  0.21903340  0.68904364  0.86119197  1
  S  S7  1  0.78099011  0.31095247  0.86117405  1
  S  S8  1  0.31066644  0.78090608  0.36130529  1
  S  S9  1  0.68928575  0.21911174  0.36130593  1
  S  S10  1  0.68929329  0.78088401  0.13870755  1
  S  S11  1  0.31068836  0.21909244  0.13869485  1
