# generated using pymatgen
data_VSeCl7
_symmetry_space_group_name_H-M   'P 1'
_cell_length_a   6.62590229
_cell_length_b   8.73254268
_cell_length_c   10.53229844
_cell_angle_alpha   86.10679508
_cell_angle_beta   75.80814878
_cell_angle_gamma   84.15119342
_symmetry_Int_Tables_number   1
_chemical_formula_structural   VSeCl7
_chemical_formula_sum   'V2 Se2 Cl14'
_cell_volume   587.15231577
_cell_formula_units_Z   2
loop_
 _symmetry_equiv_pos_site_id
 _symmetry_equiv_pos_as_xyz
  1  'x, y, z'
loop_
 _atom_site_type_symbol
 _atom_site_label
 _atom_site_symmetry_multiplicity
 _atom_site_fract_x
 _atom_site_fract_y
 _atom_site_fract_z
 _atom_site_occupancy
  V  V0  1  0.46618933  0.39085238  0.94367909  1
  V  V1  1  0.20746919  0.94583440  0.53103366  1
  Se  Se2  1  0.99380881  0.01492929  0.98698700  1
  Se  Se3  1  0.77781450  0.56954952  0.53245147  1
  Cl  Cl4  1  0.86344506  0.80178004  0.95509315  1
  Cl  Cl5  1  0.68765729  0.19163485  0.85862008  1
  Cl  Cl6  1  0.13984107  0.32533743  0.98616235  1
  Cl  Cl7  1  0.26700353  0.90748975  0.05327737  1
  Cl  Cl8  1  0.78698525  0.06301423  0.18069376  1
  Cl  Cl9  1  0.27559961  0.00542309  0.71752438  1
  Cl  Cl10  1  0.63893100  0.35733283  0.50912200  1
  Cl  Cl11  1  0.02557144  0.46966876  0.62666193  1
  Cl  Cl12  1  0.41944570  0.74481973  0.44564823  1
  Cl  Cl13  1  0.87797416  0.88324868  0.57170132  1
  Cl  Cl14  1  0.96454532  0.59156020  0.32924292  1
  Cl  Cl15  1  0.48903695  0.58498048  0.79281433  1
  Cl  Cl16  1  0.53840734  0.47191272  0.11724681  1
  Cl  Cl17  1  0.25737642  0.14112662  0.39023713  1
