# generated using pymatgen
data_Y2BiSe4
_symmetry_space_group_name_H-M   'P 1'
_cell_length_a   7.74073074
_cell_length_b   7.74073010
_cell_length_c   15.19077325
_cell_angle_alpha   89.99996262
_cell_angle_beta   90.00000833
_cell_angle_gamma   89.99997905
_symmetry_Int_Tables_number   1
_chemical_formula_structural   Y2BiSe4
_chemical_formula_sum   'Y8 Bi4 Se16'
_cell_volume   910.21453623
_cell_formula_units_Z   4
loop_
 _symmetry_equiv_pos_site_id
 _symmetry_equiv_pos_as_xyz
  1  'x, y, z'
loop_
 _atom_site_type_symbol
 _atom_site_label
 _atom_site_symmetry_multiplicity
 _atom_site_fract_x
 _atom_site_fract_y
 _atom_site_fract_z
 _atom_site_occupancy
  Y  Y0  1  -0.00000001  0.49999997  0.75000005  1
  Y  Y1  1  -0.00000031  0.50000007  0.00000004  1
  Y  Y2  1  0.00000026  0.49999987  0.25000004  1
  Y  Y3  1  0.50000021  -0.00000003  0.49999996  1
  Y  Y4  1  0.49999983  -0.00000006  0.24999995  1
  Y  Y5  1  0.50000006  -0.00000010  0.74999996  1
  Y  Y6  1  -0.00000015  0.50000007  0.50000004  1
  Y  Y7  1  0.50000008  0.00000006  -0.00000003  1
  Bi  Bi8  1  0.00000003  0.00000002  0.89249873  1
  Bi  Bi9  1  0.49999997  0.50000004  0.60750128  1
  Bi  Bi10  1  0.50000001  0.50000007  0.39249871  1
  Bi  Bi11  1  0.00000003  -0.00000002  0.10750127  1
  Se  Se12  1  0.32400066  0.19529355  0.87525349  1
  Se  Se13  1  0.30470637  0.17599950  0.37525360  1
  Se  Se14  1  0.82400062  0.30470633  0.37525367  1
  Se  Se15  1  0.67599948  0.80470631  0.87525366  1
  Se  Se16  1  0.30470632  0.82400066  0.62474636  1
  Se  Se17  1  0.19529365  0.32400053  0.12474633  1
  Se  Se18  1  0.32400065  0.80470629  0.12474635  1
  Se  Se19  1  0.80470626  0.32400056  0.87525363  1
  Se  Se20  1  0.80470644  0.67599946  0.12474650  1
  Se  Se21  1  0.69529369  0.17599946  0.62474637  1
  Se  Se22  1  0.19529356  0.67599936  0.87525363  1
  Se  Se23  1  0.69529367  0.82400054  0.37525358  1
  Se  Se24  1  0.17599932  0.69529368  0.37525363  1
  Se  Se25  1  0.82400054  0.69529371  0.62474641  1
  Se  Se26  1  0.17599940  0.30470647  0.62474644  1
  Se  Se27  1  0.67599935  0.19529364  0.12474637  1
