# generated using pymatgen
data_YAg5O4
_symmetry_space_group_name_H-M   'P 1'
_cell_length_a   8.72652105
_cell_length_b   6.22157971
_cell_length_c   14.19036117
_cell_angle_alpha   61.61204740
_cell_angle_beta   90.00000237
_cell_angle_gamma   90.00000155
_symmetry_Int_Tables_number   1
_chemical_formula_structural   YAg5O4
_chemical_formula_sum   'Y4 Ag20 O16'
_cell_volume   677.78792073
_cell_formula_units_Z   4
loop_
 _symmetry_equiv_pos_site_id
 _symmetry_equiv_pos_as_xyz
  1  'x, y, z'
loop_
 _atom_site_type_symbol
 _atom_site_label
 _atom_site_symmetry_multiplicity
 _atom_site_fract_x
 _atom_site_fract_y
 _atom_site_fract_z
 _atom_site_occupancy
  Y  Y0  1  0.37380303  0.15905823  0.38374357  1
  Y  Y1  1  0.87380304  0.84094180  0.11625645  1
  Y  Y2  1  0.62619697  0.84094177  0.61625643  1
  Y  Y3  1  0.12619696  0.15905820  0.88374355  1
  Ag  Ag4  1  0.74078027  0.87918438  0.86376957  1
  Ag  Ag5  1  0.75921976  0.87918435  0.36376962  1
  Ag  Ag6  1  0.50000000  0.00000000  0.00000000  1
  Ag  Ag7  1  0.00000000  -0.00000000  0.50000000  1
  Ag  Ag8  1  0.12996586  0.63920334  0.34324663  1
  Ag  Ag9  1  0.62996588  0.36079663  0.15675347  1
  Ag  Ag10  1  0.87003414  0.36079666  0.65675337  1
  Ag  Ag11  1  0.37003412  0.63920337  0.84324653  1
  Ag  Ag12  1  0.98714031  0.75963074  0.74222321  1
  Ag  Ag13  1  0.48714030  0.24036928  0.75777682  1
  Ag  Ag14  1  0.01285969  0.24036926  0.25777679  1
  Ag  Ag15  1  0.51285970  0.75963072  0.24222318  1
  Ag  Ag16  1  0.00000000  0.50000000  -0.00000000  1
  Ag  Ag17  1  0.50000000  0.50000000  0.50000000  1
  Ag  Ag18  1  0.25648408  0.62086290  0.13343761  1
  Ag  Ag19  1  0.75648408  0.37913712  0.36656235  1
  Ag  Ag20  1  0.74351592  0.37913710  0.86656239  1
  Ag  Ag21  1  0.24351592  0.62086288  0.63343765  1
  Ag  Ag22  1  0.25921973  0.12081562  0.13623043  1
  Ag  Ag23  1  0.24078024  0.12081565  0.63623038  1
  O  O24  1  0.34968595  -0.00521855  0.88682819  1
  O  O25  1  0.84968597  0.00521850  0.61317182  1
  O  O26  1  0.65031405  0.00521855  0.11317181  1
  O  O27  1  0.15031403  -0.00521850  0.38682818  1
  O  O28  1  0.89325029  0.70661450  0.29460449  1
  O  O29  1  0.39325028  0.29338549  0.20539555  1
  O  O30  1  0.12002824  0.94854102  0.06942726  1
  O  O31  1  0.62002825  0.05145901  0.43057274  1
  O  O32  1  0.87997176  0.05145898  0.93057274  1
  O  O33  1  0.37997175  0.94854099  0.56942726  1
  O  O34  1  0.13353292  0.52255007  0.87238156  1
  O  O35  1  0.63353292  0.47744988  0.62761845  1
  O  O36  1  0.86646708  0.47744994  0.12761844  1
  O  O37  1  0.36646708  0.52255012  0.37238155  1
  O  O38  1  0.10674971  0.29338550  0.70539551  1
  O  O39  1  0.60674972  0.70661451  0.79460445  1
