# generated using pymatgen
data_YCuSe2
_symmetry_space_group_name_H-M   'P 1'
_cell_length_a   5.94789472
_cell_length_b   5.94789512
_cell_length_c   7.44171559
_cell_angle_alpha   113.56422762
_cell_angle_beta   113.56422336
_cell_angle_gamma   90.00384197
_symmetry_Int_Tables_number   1
_chemical_formula_structural   YCuSe2
_chemical_formula_sum   'Y2 Cu2 Se4'
_cell_volume   217.15070222
_cell_formula_units_Z   2
loop_
 _symmetry_equiv_pos_site_id
 _symmetry_equiv_pos_as_xyz
  1  'x, y, z'
loop_
 _atom_site_type_symbol
 _atom_site_label
 _atom_site_symmetry_multiplicity
 _atom_site_fract_x
 _atom_site_fract_y
 _atom_site_fract_z
 _atom_site_occupancy
  Y  Y0  1  0.74996857  0.24997498  0.49999403  1
  Y  Y1  1  0.49997495  0.49996857  -0.00000598  1
  Cu  Cu2  1  0.24998777  0.74999524  0.49999877  1
  Cu  Cu3  1  -0.00000481  -0.00001229  -0.00000119  1
  Se  Se4  1  0.33607784  0.37502041  0.25000145  1
  Se  Se5  1  0.12502395  0.66395169  0.75000572  1
  Se  Se6  1  0.62501998  0.08607778  0.75000131  1
  Se  Se7  1  0.91395176  0.87502362  0.25000589  1
