# generated using pymatgen
data_YH6N2F3
_symmetry_space_group_name_H-M   'P 1'
_cell_length_a   4.29943294
_cell_length_b   6.14500664
_cell_length_c   5.67270520
_cell_angle_alpha   94.19615064
_cell_angle_beta   112.27045322
_cell_angle_gamma   69.52211619
_symmetry_Int_Tables_number   1
_chemical_formula_structural   YH6N2F3
_chemical_formula_sum   'Y1 H6 N2 F3'
_cell_volume   129.62348579
_cell_formula_units_Z   1
loop_
 _symmetry_equiv_pos_site_id
 _symmetry_equiv_pos_as_xyz
  1  'x, y, z'
loop_
 _atom_site_type_symbol
 _atom_site_label
 _atom_site_symmetry_multiplicity
 _atom_site_fract_x
 _atom_site_fract_y
 _atom_site_fract_z
 _atom_site_occupancy
  Y  Y0  1  -0.00000000  -0.00000000  0.00000000  1
  H  H1  1  0.11746327  0.53422593  0.76915094  1
  H  H2  1  0.88253668  0.46577408  0.23084906  1
  H  H3  1  0.11999624  0.71315243  0.57058278  1
  H  H4  1  0.26257727  0.28684974  0.42941514  1
  H  H5  1  0.88000341  0.28684757  0.42941750  1
  H  H6  1  0.73742211  0.71315026  0.57058458  1
  N  N7  1  0.99425337  0.70177035  0.69031680  1
  N  N8  1  0.00574768  0.29822964  0.30968320  1
  F  F9  1  0.28565616  0.74230410  0.31341804  1
  F  F10  1  0.71434382  0.25769590  0.68658196  1
  F  F11  1  0.49999999  -0.00000000  0.00000000  1
