# generated using pymatgen
data_YPO4
_symmetry_space_group_name_H-M   'P 1'
_cell_length_a   5.19681128
_cell_length_b   8.83401232
_cell_length_c   7.10467788
_cell_angle_alpha   89.99936793
_cell_angle_beta   89.99962998
_cell_angle_gamma   89.96263004
_symmetry_Int_Tables_number   1
_chemical_formula_structural   YPO4
_chemical_formula_sum   'Y4 P4 O16'
_cell_volume   326.16641933
_cell_formula_units_Z   4
loop_
 _symmetry_equiv_pos_site_id
 _symmetry_equiv_pos_as_xyz
  1  'x, y, z'
loop_
 _atom_site_type_symbol
 _atom_site_label
 _atom_site_symmetry_multiplicity
 _atom_site_fract_x
 _atom_site_fract_y
 _atom_site_fract_z
 _atom_site_occupancy
  Y  Y0  1  0.25058019  0.65924225  0.63962409  1
  Y  Y1  1  0.74954365  0.34081205  0.36031030  1
  Y  Y2  1  0.75043976  0.15918929  0.86031045  1
  Y  Y3  1  0.24943630  0.84075688  0.13962532  1
  P  P4  1  0.25003810  0.33294365  0.61833673  1
  P  P5  1  0.74992821  0.66707045  0.38167541  1
  P  P6  1  0.75007889  0.83294228  0.88166172  1
  P  P7  1  0.24995477  0.16705458  0.11834641  1
  O  O8  1  0.25037247  0.43423805  0.43712146  1
  O  O9  1  0.74942050  0.56572712  0.56286386  1
  O  O10  1  0.75056988  0.93427834  0.06286900  1
  O  O11  1  0.24963718  0.06575731  0.93711515  1
  O  O12  1  0.24986393  0.43954224  0.78844979  1
  O  O13  1  0.75018692  0.56040333  0.21154767  1
  O  O14  1  0.74982091  0.93959039  0.71156049  1
  O  O15  1  0.25012828  0.06045986  0.28844898  1
  O  O16  1  -0.00030686  0.26259038  0.11202254  1
  O  O17  1  0.49976570  0.73760419  0.88833063  1
  O  O18  1  0.00023973  0.76238807  0.38833628  1
  O  O19  1  0.50029632  0.23740471  0.61201848  1
  O  O20  1  0.00036133  0.73737369  0.88794898  1
  O  O21  1  0.50021003  0.26239749  0.11176570  1
  O  O22  1  -0.00022232  0.23760621  0.61175877  1
  O  O23  1  0.49965614  0.76262720  0.38795179  1
