# generated using pymatgen
data_ZnAgSI
_symmetry_space_group_name_H-M   'P 1'
_cell_length_a   6.99228459
_cell_length_b   7.65984252
_cell_length_c   8.54909328
_cell_angle_alpha   89.99996398
_cell_angle_beta   90.00394903
_cell_angle_gamma   90.00000949
_symmetry_Int_Tables_number   1
_chemical_formula_structural   ZnAgSI
_chemical_formula_sum   'Zn4 Ag4 S4 I4'
_cell_volume   457.88771558
_cell_formula_units_Z   4
loop_
 _symmetry_equiv_pos_site_id
 _symmetry_equiv_pos_as_xyz
  1  'x, y, z'
loop_
 _atom_site_type_symbol
 _atom_site_label
 _atom_site_symmetry_multiplicity
 _atom_site_fract_x
 _atom_site_fract_y
 _atom_site_fract_z
 _atom_site_occupancy
  Zn  Zn0  1  0.38597196  0.29788272  0.08331131  1
  Zn  Zn1  1  0.11400577  0.70213174  0.58329467  1
  Zn  Zn2  1  0.61402707  0.79788292  0.41668759  1
  Zn  Zn3  1  0.88599366  0.20213185  -0.08329374  1
  Ag  Ag4  1  0.02126067  0.13217258  0.34875530  1
  Ag  Ag5  1  0.52126189  0.36783000  0.65124197  1
  Ag  Ag6  1  0.47873887  0.86782998  0.84875755  1
  Ag  Ag7  1  0.97874008  0.63217267  0.15124531  1
  S  S8  1  0.06042951  0.32181990  0.11339734  1
  S  S9  1  0.43956698  0.67816067  0.61342297  1
  S  S10  1  -0.06042978  0.82181990  0.38660226  1
  S  S11  1  0.56043268  0.17816051  0.88657728  1
  I  I12  1  0.01530339  0.85944902  0.87128662  1
  I  I13  1  0.51530137  0.64055331  0.12871641  1
  I  I14  1  0.48469887  0.14055303  0.37128360  1
  I  I15  1  -0.01530300  0.35944920  0.62871357  1
