# generated using pymatgen
data_ZnBF5
_symmetry_space_group_name_H-M   'P 1'
_cell_length_a   3.90397290
_cell_length_b   6.54539586
_cell_length_c   6.54542706
_cell_angle_alpha   90.00011222
_cell_angle_beta   90.00001124
_cell_angle_gamma   90.00000553
_symmetry_Int_Tables_number   1
_chemical_formula_structural   ZnBF5
_chemical_formula_sum   'Zn2 B2 F10'
_cell_volume   167.25561222
_cell_formula_units_Z   2
loop_
 _symmetry_equiv_pos_site_id
 _symmetry_equiv_pos_as_xyz
  1  'x, y, z'
loop_
 _atom_site_type_symbol
 _atom_site_label
 _atom_site_symmetry_multiplicity
 _atom_site_fract_x
 _atom_site_fract_y
 _atom_site_fract_z
 _atom_site_occupancy
  Zn  Zn0  1  0.80342968  0.74999998  0.74999968  1
  Zn  Zn1  1  0.19656985  0.24999985  0.25000132  1
  B  B2  1  0.00001369  0.75000154  0.24999652  1
  B  B3  1  0.00000408  0.25000158  0.74999733  1
  F  F4  1  0.69611698  0.24999994  0.25000059  1
  F  F5  1  0.30388311  0.74999999  0.74999935  1
  F  F6  1  0.79347724  0.42274229  0.79388010  1
  F  F7  1  0.79347400  0.79388020  0.07725517  1
  F  F8  1  0.20652054  0.29387947  0.57726068  1
  F  F9  1  0.20652043  0.92274035  0.29387937  1
  F  F10  1  0.20652046  0.57725882  0.20612040  1
  F  F11  1  0.20652313  0.20612000  0.92274289  1
  F  F12  1  0.79347042  0.70611865  0.42274646  1
  F  F13  1  0.79347638  0.07725734  0.70612015  1
