# generated using pymatgen
data_ZrAgF6
_symmetry_space_group_name_H-M   'P 1'
_cell_length_a   5.30663106
_cell_length_b   5.26636649
_cell_length_c   10.62226801
_cell_angle_alpha   76.93383233
_cell_angle_beta   76.52414600
_cell_angle_gamma   60.61431884
_symmetry_Int_Tables_number   1
_chemical_formula_structural   ZrAgF6
_chemical_formula_sum   'Zr2 Ag2 F12'
_cell_volume   249.34457981
_cell_formula_units_Z   2
loop_
 _symmetry_equiv_pos_site_id
 _symmetry_equiv_pos_as_xyz
  1  'x, y, z'
loop_
 _atom_site_type_symbol
 _atom_site_label
 _atom_site_symmetry_multiplicity
 _atom_site_fract_x
 _atom_site_fract_y
 _atom_site_fract_z
 _atom_site_occupancy
  Zr  Zr0  1  0.70806517  0.76546127  0.75053637  1
  Zr  Zr1  1  0.29193510  0.23453907  0.24946329  1
  Ag  Ag2  1  0.50000003  0.49999992  0.50000006  1
  Ag  Ag3  1  -0.00000002  -0.00000004  0.00000003  1
  F  F4  1  0.44511851  0.79539598  0.62778589  1
  F  F5  1  0.55488150  0.20460401  0.37221411  1
  F  F6  1  0.71751921  0.13910458  0.63724875  1
  F  F7  1  0.28248074  0.86089541  0.36275125  1
  F  F8  1  0.66228921  0.43897729  0.86738667  1
  F  F9  1  0.33771075  0.56102229  0.13261348  1
  F  F10  1  -0.03757119  0.76969264  0.86622751  1
  F  F11  1  0.03757123  0.23030735  0.13377251  1
  F  F12  1  0.66178309  0.95184349  0.13490542  1
  F  F13  1  0.33821685  0.04815658  0.86509460  1
  F  F14  1  0.94947818  0.48860111  0.36209941  1
  F  F15  1  0.05052163  0.51139902  0.63790065  1
