data_image0
_chemical_formula_structural       I2Ag2BrAg2Br
_chemical_formula_sum              "I2 Ag4 Br2"
_cell_length_a       5.940828879160197
_cell_length_b       5.948325617007726
_cell_length_c       5.9563374519348145
_cell_angle_alpha    90.08874714918608
_cell_angle_beta     89.88951052985723
_cell_angle_gamma    90.05571635531744

_space_group_name_H-M_alt    "P 1"
_space_group_IT_number       1

loop_
  _space_group_symop_operation_xyz
  'x, y, z'

loop_
  _atom_site_type_symbol
  _atom_site_label
  _atom_site_symmetry_multiplicity
  _atom_site_fract_x
  _atom_site_fract_y
  _atom_site_fract_z
  _atom_site_occupancy
  I   I1        1.0  0.7831555604934692  0.4759208559989929  0.3642365038394928  1.0000
  I   I2        1.0  0.7840338945388794  0.9756629467010498  0.8654351830482483  1.0000
  Ag  Ag1       1.0  0.28135403990745544  0.4747321009635926  0.36799654364585876  1.0000
  Ag  Ag2       1.0  0.28469938039779663  0.9742406606674195  0.8650878667831421  1.0000
  Br  Br1       1.0  0.2833464741706848  0.9758767485618592  0.36598432064056396  1.0000
  Ag  Ag3       1.0  0.781562864780426  0.9738322496414185  0.36641302704811096  1.0000
  Ag  Ag4       1.0  0.7872895002365112  0.47555229067802435  0.8607717752456665  1.0000
  Br  Br2       1.0  0.28505799174308777  0.4761825203895569  0.8662062883377075  1.0000
