data_image0
_chemical_formula_structural       FAgAsAuF5
_chemical_formula_sum              "F6 Ag1 As1 Au1"
_cell_length_a       5.155068528399314
_cell_length_b       5.6897473494706805
_cell_length_c       5.123200416564941
_cell_angle_alpha    72.90348571522517
_cell_angle_beta     90.84376990684875
_cell_angle_gamma    72.59754638731758

_space_group_name_H-M_alt    "P 1"
_space_group_IT_number       1

loop_
  _space_group_symop_operation_xyz
  'x, y, z'

loop_
  _atom_site_type_symbol
  _atom_site_label
  _atom_site_symmetry_multiplicity
  _atom_site_fract_x
  _atom_site_fract_y
  _atom_site_fract_z
  _atom_site_occupancy
  F   F1        1.0  0.06943907588720322  0.3001936674118042  0.9675024747848511  1.0000
  Ag  Ag1       1.0  0.4441985785961151  0.9528390765190125  0.3436176776885987  1.0000
  As  As1       1.0  0.8230697512626648  0.29571783542633057  0.7245372533798218  1.0000
  Au  Au1       1.0  0.20715568959712982  0.6251952052116394  0.1073247566819191  1.0000
  F   F2        1.0  0.7426704168319702  0.04460761323571205  0.9831132292747498  1.0000
  F   F3        1.0  0.5634376406669617  0.5549344420433044  0.8031198978424072  1.0000
  F   F4        1.0  0.9029935002326965  0.5503756999969482  0.46500247716903687  1.0000
  F   F5        1.0  0.5815374851226807  0.28534501791000366  0.48386654257774353  1.0000
  F   F6        1.0  0.08139482140541077  0.04100434109568596  0.6426867842674255  1.0000
