data_image0
_chemical_formula_structural       O3SeAgSeO3AgO2
_chemical_formula_sum              "O8 Se2 Ag2"
_cell_length_a       5.291869856817816
_cell_length_b       4.599324124688195
_cell_length_c       8.333168983459473
_cell_angle_alpha    90.57504299526907
_cell_angle_beta     90.01638812919357
_cell_angle_gamma    87.75138136751427

_space_group_name_H-M_alt    "P 1"
_space_group_IT_number       1

loop_
  _space_group_symop_operation_xyz
  'x, y, z'

loop_
  _atom_site_type_symbol
  _atom_site_label
  _atom_site_symmetry_multiplicity
  _atom_site_fract_x
  _atom_site_fract_y
  _atom_site_fract_z
  _atom_site_occupancy
  O   O1        1.0  0.493517518043518  0.8291508555412292  0.5478428602218628  1.0000
  O   O2        1.0  0.37408661842346186  0.8615726828575134  0.9489349722862244  1.0000
  O   O3        1.0  0.9918685555458068  0.819947361946106  0.7185015678405762  1.0000
  Se  Se1       1.0  0.15247556567192078  0.06191780045628548  0.841473400592804  1.0000
  Ag  Ag1       1.0  0.6564420461654663  0.5584239959716797  0.7768514752388  1.0000
  Se  Se2       1.0  0.6583917737007141  0.05866684764623642  0.42021268606185913  1.0000
  O   O4        1.0  0.435931384563446  0.2648487985134125  0.31903737783432007  1.0000
  O   O5        1.0  0.8801736831665038  0.8552173376083374  0.318935364484787  1.0000
  O   O6        1.0  0.9298133254051207  0.2699783444404602  0.9382020235061646  1.0000
  Ag  Ag2       1.0  0.1584215760231018  0.5573157072067261  0.48030057549476624  1.0000
  O   O7        1.0  0.3202609717845917  0.2962741553783417  0.7173442840576172  1.0000
  O   O8        1.0  0.8219504952430725  0.29272663593292236  0.5438883304595947  1.0000
