# generated using pymatgen
data_Al3NiBRh3
_symmetry_space_group_name_H-M   'P 1'
_cell_length_a   2.95747039
_cell_length_b   2.95738951
_cell_length_c   12.06259871
_cell_angle_alpha   104.20364839
_cell_angle_beta   104.20438936
_cell_angle_gamma   89.98992498
_symmetry_Int_Tables_number   1
_chemical_formula_structural   Al3NiBRh3
_chemical_formula_sum   'Al3 Ni1 B1 Rh3'
_cell_volume   98.94939887
_cell_formula_units_Z   1
loop_
 _symmetry_equiv_pos_site_id
 _symmetry_equiv_pos_as_xyz
  1  'x, y, z'
loop_
 _atom_site_type_symbol
 _atom_site_label
 _atom_site_symmetry_multiplicity
 _atom_site_fract_x
 _atom_site_fract_y
 _atom_site_fract_z
 _atom_site_occupancy
  Al  Al0  1  0.42591103  0.34242953  0.58785430  1
  Al  Al1  1  0.55681427  0.47356893  0.21912728  1
  Al  Al2  1  0.28369310  0.20070760  0.94634033  1
  Ni  Ni3  1  0.83394283  0.75052648  0.49611780  1
  B  B4  1  0.04004823  0.95679136  0.70243193  1
  Rh  Rh5  1  0.18172741  0.09838987  0.34391328  1
  Rh  Rh6  1  0.91295239  0.82992177  0.07546254  1
  Rh  Rh7  1  0.63728288  0.55429617  0.80018295  1
