data_image0
_chemical_formula_structural       AlAgF5AgF2AlF
_chemical_formula_sum              "Al2 Ag2 F8"
_cell_length_a       5.142787752599155
_cell_length_b       6.111437824447585
_cell_length_c       5.195099353790283
_cell_angle_alpha    89.83359178841316
_cell_angle_beta     90.28413835989011
_cell_angle_gamma    90.40521030521855

_space_group_name_H-M_alt    "P 1"
_space_group_IT_number       1

loop_
  _space_group_symop_operation_xyz
  'x, y, z'

loop_
  _atom_site_type_symbol
  _atom_site_label
  _atom_site_symmetry_multiplicity
  _atom_site_fract_x
  _atom_site_fract_y
  _atom_site_fract_z
  _atom_site_occupancy
  Al  Al1       1.0  0.1452731192111969  0.04995091632008553  0.7979066967964172  1.0000
  Ag  Ag1       1.0  0.6440544724464417  0.5509481430053712  0.7966359853744507  1.0000
  F   F1        1.0  0.3940814435482025  0.050719495862722404  0.5473712682723999  1.0000
  F   F2        1.0  0.8948474526405334  0.05075293406844139  0.04583413153886795  1.0000
  F   F3        1.0  0.39383962750434875  0.050204768776893616  0.04652169346809387  1.0000
  F   F4        1.0  0.8945332765579224  0.05046059936285019  0.5479027032852173  1.0000
  F   F5        1.0  0.6434293985366821  0.760436773300171  0.2985284924507141  1.0000
  Ag  Ag2       1.0  0.14407028257846832  0.5505680441856384  0.2966729700565338  1.0000
  F   F6        1.0  0.14622890949249268  0.33788734674453735  0.7952786087989807  1.0000
  F   F7        1.0  0.6444854736328125  0.33594572544097906  0.2958020567893982  1.0000
  Al  Al2       1.0  0.6449337005615234  0.048917997628450394  0.29617053270339966  1.0000
  F   F8        1.0  0.14221620559692383  0.7616421580314636  0.7978898882865906  1.0000
