# generated using pymatgen
data_AlB2Pd9
_symmetry_space_group_name_H-M   'P 1'
_cell_length_a   5.64424130
_cell_length_b   6.39183460
_cell_length_c   6.56484699
_cell_angle_alpha   92.92636406
_cell_angle_beta   49.06063537
_cell_angle_gamma   77.39246096
_symmetry_Int_Tables_number   1
_chemical_formula_structural   AlB2Pd9
_chemical_formula_sum   'Al1 B2 Pd9'
_cell_volume   168.43695656
_cell_formula_units_Z   1
loop_
 _symmetry_equiv_pos_site_id
 _symmetry_equiv_pos_as_xyz
  1  'x, y, z'
loop_
 _atom_site_type_symbol
 _atom_site_label
 _atom_site_symmetry_multiplicity
 _atom_site_fract_x
 _atom_site_fract_y
 _atom_site_fract_z
 _atom_site_occupancy
  Al  Al0  1  0.98828545  0.22907090  0.47654197  1
  B  B1  1  -0.03265445  0.95992971  0.11802832  1
  B  B2  1  0.44764352  0.56499862  0.42324779  1
  Pd  Pd3  1  0.47756200  0.39633174  0.11858355  1
  Pd  Pd4  1  0.01488219  0.00554819  0.78816612  1
  Pd  Pd5  1  0.41531250  0.01728219  0.93568476  1
  Pd  Pd6  1  0.42367983  0.62216545  0.75530631  1
  Pd  Pd7  1  0.51721733  0.21196210  0.49921563  1
  Pd  Pd8  1  0.98752581  0.81698001  0.37524775  1
  Pd  Pd9  1  0.56728058  0.83519002  0.23965793  1
  Pd  Pd10  1  0.96596921  0.42250542  0.13334555  1
  Pd  Pd11  1  0.95819055  0.57067287  0.71607255  1
