data_image0
_chemical_formula_structural       AlTeCuTeCu2Te2AlTe2Al
_chemical_formula_sum              "Al3 Te6 Cu3"
_cell_length_a       5.683637524482043
_cell_length_b       5.675257485234605
_cell_length_c       8.982017517089844
_cell_angle_alpha    89.98202544562
_cell_angle_beta     71.41462582025653
_cell_angle_gamma    89.92674189105126

_space_group_name_H-M_alt    "P 1"
_space_group_IT_number       1

loop_
  _space_group_symop_operation_xyz
  'x, y, z'

loop_
  _atom_site_type_symbol
  _atom_site_label
  _atom_site_symmetry_multiplicity
  _atom_site_fract_x
  _atom_site_fract_y
  _atom_site_fract_z
  _atom_site_occupancy
  Al  Al1       1.0  0.10543997585773468  0.22823670506477356  0.915660560131073  1.0000
  Te  Te1       1.0  0.435756117105484  0.7280014753341676  0.25774720311164856  1.0000
  Cu  Cu1       1.0  0.2703450322151184  0.7251912951469422  0.5854727029800415  1.0000
  Te  Te2       1.0  0.10314935445785522  0.7299585938453675  0.9127729535102844  1.0000
  Cu  Cu2       1.0  0.769788384437561  0.22309494018554688  0.5864165425300598  1.0000
  Cu  Cu3       1.0  0.43854889273643494  0.22941705584526062  0.2527863383293152  1.0000
  Te  Te3       1.0  0.2709225118160248  0.2265163213014603  0.5787079930305481  1.0000
  Te  Te4       1.0  0.7691699862480164  0.7259166836738586  0.5825079679489136  1.0000
  Al  Al2       1.0  0.9369262456893921  0.727476716041565  0.25230762362480164  1.0000
  Te  Te5       1.0  0.6024875640869141  0.2292926609516144  0.918974757194519  1.0000
  Te  Te6       1.0  0.9370567202568054  0.22745271027088168  0.25585913658142095  1.0000
  Al  Al3       1.0  0.6042281985282898  0.7277095317840576  0.9180402159690857  1.0000
