# generated using pymatgen
data_AlO2
_symmetry_space_group_name_H-M   'P 1'
_cell_length_a   5.60616452
_cell_length_b   4.42509751
_cell_length_c   5.61420504
_cell_angle_alpha   68.86601225
_cell_angle_beta   64.94358575
_cell_angle_gamma   68.93303454
_symmetry_Int_Tables_number   1
_chemical_formula_structural   AlO2
_chemical_formula_sum   'Al4 O8'
_cell_volume   114.10524079
_cell_formula_units_Z   4
loop_
 _symmetry_equiv_pos_site_id
 _symmetry_equiv_pos_as_xyz
  1  'x, y, z'
loop_
 _atom_site_type_symbol
 _atom_site_label
 _atom_site_symmetry_multiplicity
 _atom_site_fract_x
 _atom_site_fract_y
 _atom_site_fract_z
 _atom_site_occupancy
  Al  Al0  1  0.35665156  0.08593670  0.45241283  1
  Al  Al1  1  0.85669736  0.08584010  0.95256178  1
  Al  Al2  1  0.85662571  0.58609057  0.45242674  1
  Al  Al3  1  0.35658857  0.58607802  0.95245227  1
  O  O4  1  0.08391376  0.86528610  0.17929320  1
  O  O5  1  0.08397128  0.36535974  0.67942976  1
  O  O6  1  0.58394671  0.86533667  0.67940186  1
  O  O7  1  0.62937776  0.30664660  0.72548573  1
  O  O8  1  0.12935201  0.30663765  0.22556046  1
  O  O9  1  0.58390488  0.36531493  0.17932193  1
  O  O10  1  0.12931298  0.80664769  0.72550161  1
  O  O11  1  0.62933254  0.80677600  0.22564226  1
