data_image0
_chemical_formula_structural       AuSeAuSeAuSe2
_chemical_formula_sum              "Au3 Se4"
_cell_length_a       5.245546220933589
_cell_length_b       5.235592004231433
_cell_length_c       6.5570220947265625
_cell_angle_alpha    89.78508377699653
_cell_angle_beta     89.5700352838938
_cell_angle_gamma    92.06327287894108

_space_group_name_H-M_alt    "P 1"
_space_group_IT_number       1

loop_
  _space_group_symop_operation_xyz
  'x, y, z'

loop_
  _atom_site_type_symbol
  _atom_site_label
  _atom_site_symmetry_multiplicity
  _atom_site_fract_x
  _atom_site_fract_y
  _atom_site_fract_z
  _atom_site_occupancy
  Au  Au1       1.0  0.8126895427703857  0.4553452730178833  0.10431792587041855  1.0000
  Se  Se1       1.0  0.06874436885118484  0.1898755580186844  0.8598772883415222  1.0000
  Au  Au2       1.0  0.31199344992637634  0.4547624588012696  0.6046035289764404  1.0000
  Se  Se2       1.0  0.5556274652481079  0.7214516997337341  0.35043033957481384  1.0000
  Au  Au3       1.0  0.8114646673202515  0.9566041231155397  0.604556679725647  1.0000
  Se  Se3       1.0  0.07750624418258667  0.19831675291061399  0.35137826204299927  1.0000
  Se  Se4       1.0  0.5481253266334534  0.7108462452888489  0.8570924997329712  1.0000
