data_image0
_chemical_formula_structural       Pd4BPdB3Pd4PtPd3Pt
_chemical_formula_sum              "Pd12 B4 Pt2"
_cell_length_a       2.905037657924133
_cell_length_b       7.002938885305993
_cell_length_c       12.394295692443848
_cell_angle_alpha    88.29602065964079
_cell_angle_beta     89.9593355586465
_cell_angle_gamma    90.18995006977508

_space_group_name_H-M_alt    "P 1"
_space_group_IT_number       1

loop_
  _space_group_symop_operation_xyz
  'x, y, z'

loop_
  _atom_site_type_symbol
  _atom_site_label
  _atom_site_symmetry_multiplicity
  _atom_site_fract_x
  _atom_site_fract_y
  _atom_site_fract_z
  _atom_site_occupancy
  Pd  Pd1       1.0  0.5607635378837585  0.10960236191749573  0.6699477434158324  1.0000
  Pd  Pd2       1.0  0.5596169233322144  0.5943351984024048  0.1688226610422134  1.0000
  Pd  Pd3       1.0  0.05987399071455001  0.854080855846405  0.026230832561850544  1.0000
  Pd  Pd4       1.0  0.56242835521698  0.485115796327591  0.7288426160812377  1.0000
  B   B1        1.0  0.06010937318205833  0.3995794951915741  0.08574456721544264  1.0000
  Pd  Pd5       1.0  0.05816587805747985  0.9128518700599672  0.24621005356311795  1.0000
  B   B2        1.0  0.06398404389619827  0.6205111742019653  0.836809754371643  1.0000
  B   B3        1.0  0.059454198926687234  0.06871885061264038  0.5505496263504028  1.0000
  B   B4        1.0  0.5600309371948242  0.5707435607910156  0.5565651655197144  1.0000
  Pd  Pd6       1.0  0.5578886270523071  0.04872390627861023  0.42765468358993525  1.0000
  Pd  Pd7       1.0  0.059612836688756936  0.18307699263095858  0.8858219981193541  1.0000
  Pd  Pd8       1.0  0.5597728490829468  0.6397460699081421  0.385253757238388  1.0000
  Pd  Pd9       1.0  0.061065595597028725  0.7748865485191345  0.5776810646057129  1.0000
  Pt  Pt1       1.0  0.5604838132858276  0.1672398149967194  0.10446462035179137  1.0000
  Pd  Pd10      1.0  0.05965443328022956  0.313725084066391  0.29231956601142883  1.0000
  Pd  Pd11      1.0  0.060342404991388314  0.36921483278274536  0.5221261382102966  1.0000
  Pd  Pd12      1.0  0.5632908940315247  0.8501281142234803  0.8321618437767028  1.0000
  Pt  Pt2       1.0  0.5619103312492371  0.5050956010818481  0.9552446007728576  1.0000
