data_image0
_chemical_formula_structural       BaHO2BaOBaHOBa
_chemical_formula_sum              "Ba4 H2 O4"
_cell_length_a       4.0842731053938985
_cell_length_b       5.654062225799
_cell_length_c       9.195229530334473
_cell_angle_alpha    91.29848981857234
_cell_angle_beta     89.862927434727
_cell_angle_gamma    90.35895627704946

_space_group_name_H-M_alt    "P 1"
_space_group_IT_number       1

loop_
  _space_group_symop_operation_xyz
  'x, y, z'

loop_
  _atom_site_type_symbol
  _atom_site_label
  _atom_site_symmetry_multiplicity
  _atom_site_fract_x
  _atom_site_fract_y
  _atom_site_fract_z
  _atom_site_occupancy
  Ba  Ba1       1.0  0.31198713183403015  0.5145236253738403  0.8087015151977539  1.0000
  H   H1        1.0  0.31690987944602966  0.0206257589161396  0.8969995975494385  1.0000
  O   O1        1.0  0.318440705537796  0.9949340820312499  0.3821102976799011  1.0000
  O   O2        1.0  0.8171920776367188  0.5085957646369933  0.6199173927307129  1.0000
  Ba  Ba2       1.0  0.8179847598075867  0.9903637766838074  0.19456401467323306  1.0000
  O   O3        1.0  0.8164089322090149  0.4882137477397918  0.21319127082824707  1.0000
  Ba  Ba3       1.0  0.8142830729484558  0.006156325340270995  0.6035478711128235  1.0000
  H   H2        1.0  0.815049946308136  0.48308369517326355  0.09627991169691086  1.0000
  O   O4        1.0  0.31449785828590393  0.016134075820446014  0.788154125213623  1.0000
  Ba  Ba4       1.0  0.31735435128211975  0.4993242919445038  0.3985530436038971  1.0000
