data_image0
_chemical_formula_structural       OBa2O2RhInO
_chemical_formula_sum              "O4 Ba2 Rh1 In1"
_cell_length_a       4.166272163973681
_cell_length_b       6.007670174470881
_cell_length_c       6.300619602203369
_cell_angle_alpha    67.24675737450683
_cell_angle_beta     110.14421037259432
_cell_angle_gamma    90.45616289158309

_space_group_name_H-M_alt    "P 1"
_space_group_IT_number       1

loop_
  _space_group_symop_operation_xyz
  'x, y, z'

loop_
  _atom_site_type_symbol
  _atom_site_label
  _atom_site_symmetry_multiplicity
  _atom_site_fract_x
  _atom_site_fract_y
  _atom_site_fract_z
  _atom_site_occupancy
  O   O1        1.0  0.0025057566817849874  0.5545543432235718  0.07933946698904042  1.0000
  Ba  Ba1       1.0  0.5908187627792358  0.22362081706523892  0.25498819351196295  1.0000
  Ba  Ba2       1.0  0.4115515351295471  0.8927381038665771  0.8977708220481873  1.0000
  O   O2        1.0  0.3339165151119232  0.3956068754196167  0.7456968426704407  1.0000
  O   O3        1.0  0.6796801090240479  0.7130999565124511  0.43534216284751903  1.0000
  Rh  Rh1       1.0  0.8614880442619324  0.4248365759849548  0.7991706728935242  1.0000
  In  In1       1.0  0.15099453926086429  0.6778292655944824  0.3756560683250427  1.0000
  O   O4        1.0  0.0021070463117212057  0.05748804286122322  0.07950744777917862  1.0000
