# generated using pymatgen
data_Ba2P2O7
_symmetry_space_group_name_H-M   'P 1'
_cell_length_a   5.17838097
_cell_length_b   5.30767323
_cell_length_c   7.05577382
_cell_angle_alpha   100.66626158
_cell_angle_beta   105.77022958
_cell_angle_gamma   90.40253587
_symmetry_Int_Tables_number   1
_chemical_formula_structural   Ba2P2O7
_chemical_formula_sum   'Ba2 P2 O7'
_cell_volume   183.06754275
_cell_formula_units_Z   1
loop_
 _symmetry_equiv_pos_site_id
 _symmetry_equiv_pos_as_xyz
  1  'x, y, z'
loop_
 _atom_site_type_symbol
 _atom_site_label
 _atom_site_symmetry_multiplicity
 _atom_site_fract_x
 _atom_site_fract_y
 _atom_site_fract_z
 _atom_site_occupancy
  Ba  Ba0  1  0.19121964  0.93082667  0.36161406  1
  Ba  Ba1  1  0.51826499  0.43711843  0.88011581  1
  P  P2  1  0.71691647  0.48449298  0.39061071  1
  P  P3  1  0.93454669  0.86408368  0.77350669  1
  O  O4  1  0.60827458  0.69638748  0.27186896  1
  O  O5  1  0.06470128  0.74321592  0.95576227  1
  O  O6  1  0.85110499  0.29314065  0.26367363  1
  O  O7  1  0.63430899  0.89877560  0.74801211  1
  O  O8  1  0.96397262  0.63350487  0.58259641  1
  O  O9  1  0.51262305  0.37028727  0.47668173  1
  O  O10  1  0.08869388  0.09810311  0.75230080  1
