data_image0
_chemical_formula_structural       BaO3BaO4BaOBaORu2O3
_chemical_formula_sum              "Ba4 O12 Ru2"
_cell_length_a       4.6949897692714515
_cell_length_b       5.7520055119394025
_cell_length_c       10.061957359313965
_cell_angle_alpha    90.62638546580202
_cell_angle_beta     90.55635554928915
_cell_angle_gamma    90.51557250934351

_space_group_name_H-M_alt    "P 1"
_space_group_IT_number       1

loop_
  _space_group_symop_operation_xyz
  'x, y, z'

loop_
  _atom_site_type_symbol
  _atom_site_label
  _atom_site_symmetry_multiplicity
  _atom_site_fract_x
  _atom_site_fract_y
  _atom_site_fract_z
  _atom_site_occupancy
  Ba  Ba1       1.0  0.5538188815116882  0.5084250569343567  0.6183574795722961  1.0000
  O   O1        1.0  0.5124526619911194  0.2527792453765869  0.8668066263198851  1.0000
  O   O2        1.0  0.5142204761505127  0.7692757248878479  0.8687688708305358  1.0000
  O   O3        1.0  0.05243369936943054  0.012710697017610071  0.9491919875144957  1.0000
  Ba  Ba2       1.0  0.5512767434120178  0.011661279015243053  0.11832863092422484  1.0000
  O   O4        1.0  0.04884716123342514  0.27061012387275696  0.20353165268898007  1.0000
  O   O5        1.0  0.5095338821411133  0.007674974389374255  0.6226438283920288  1.0000
  O   O6        1.0  0.5086638927459717  0.2677665650844574  0.36387985944747925  1.0000
  O   O7        1.0  0.05259378254413605  0.766552209854126  0.7062143683433533  1.0000
  Ba  Ba3       1.0  0.013584023341536522  0.5115336179733276  0.9529534578323363  1.0000
  O   O8        1.0  0.051595307886600494  0.2508373260498047  0.7057256698608398  1.0000
  Ba  Ba4       1.0  0.011547236703336239  0.0092382300645113  0.45116165280342096  1.0000
  O   O9        1.0  0.5092536807060242  0.7477668523788452  0.3653040826320648  1.0000
  Ru  Ru1       1.0  0.28303420543670654  0.009644078090786934  0.7843478322029114  1.0000
  Ru  Ru2       1.0  0.2806749641895294  0.509314239025116  0.285951167345047  1.0000
  O   O10       1.0  0.05085507035255432  0.7547972202301025  0.203804075717926  1.0000
  O   O11       1.0  0.04964139685034752  0.5099183320999146  0.44424822926521296  1.0000
  O   O12       1.0  0.5126147270202637  0.5092659592628479  0.1251291036605835  1.0000
