data_image0
_chemical_formula_structural       Ba3Pd
_chemical_formula_sum              "Ba3 Pd1"
_cell_length_a       6.297836858400198
_cell_length_b       6.302935494877705
_cell_length_c       6.303405284881592
_cell_angle_alpha    60.05294258184692
_cell_angle_beta     60.18322187680146
_cell_angle_gamma    60.181760264687256

_space_group_name_H-M_alt    "P 1"
_space_group_IT_number       1

loop_
  _space_group_symop_operation_xyz
  'x, y, z'

loop_
  _atom_site_type_symbol
  _atom_site_label
  _atom_site_symmetry_multiplicity
  _atom_site_fract_x
  _atom_site_fract_y
  _atom_site_fract_z
  _atom_site_occupancy
  Ba  Ba1       1.0  0.5026849508285522  0.13240565359592438  0.14034640789031982  1.0000
  Ba  Ba2       1.0  0.7540324330329895  0.3791603446006775  0.3911322355270386  1.0000
  Ba  Ba3       1.0  0.2522054016590118  0.8799921274185181  0.8889017701148987  1.0000
  Pd  Pd1       1.0  0.0020504267886281013  0.6294667720794678  0.6400187611579895  1.0000
