data_image0
_chemical_formula_structural       BaSrBa2
_chemical_formula_sum              "Ba3 Sr1"
_cell_length_a       5.0469512329247435
_cell_length_b       7.020390604869942
_cell_length_c       8.2134428024292
_cell_angle_alpha    113.7448958648088
_cell_angle_beta     107.79232450588741
_cell_angle_gamma    89.8392330736725

_space_group_name_H-M_alt    "P 1"
_space_group_IT_number       1

loop_
  _space_group_symop_operation_xyz
  'x, y, z'

loop_
  _atom_site_type_symbol
  _atom_site_label
  _atom_site_symmetry_multiplicity
  _atom_site_fract_x
  _atom_site_fract_y
  _atom_site_fract_z
  _atom_site_occupancy
  Ba  Ba1       1.0  0.31628769636154175  0.9127489328384399  0.6106200814247131  1.0000
  Sr  Sr1       1.0  0.5641617774963379  0.6640437245368958  0.11122646927833557  1.0000
  Ba  Ba2       1.0  0.8172047734260559  0.41410067677497864  0.6146425008773804  1.0000
  Ba  Ba3       1.0  0.06543726474046707  0.16136230528354645  0.11139453947544098  1.0000
