data_image0
_chemical_formula_structural       TaOBa2O3BaO2
_chemical_formula_sum              "Ta1 O6 Ba3"
_cell_length_a       6.442801722122568
_cell_length_b       6.450247722943733
_cell_length_c       6.4469170570373535
_cell_angle_alpha    120.05438687376936
_cell_angle_beta     120.02359540997172
_cell_angle_gamma    59.95390857984991

_space_group_name_H-M_alt    "P 1"
_space_group_IT_number       1

loop_
  _space_group_symop_operation_xyz
  'x, y, z'

loop_
  _atom_site_type_symbol
  _atom_site_label
  _atom_site_symmetry_multiplicity
  _atom_site_fract_x
  _atom_site_fract_y
  _atom_site_fract_z
  _atom_site_occupancy
  Ta  Ta1       1.0  0.6062243580818176  0.6328051090240479  0.11483921110630035  1.0000
  O   O1        1.0  0.8281465172767639  0.4116881489753723  0.33573207259178167  1.0000
  Ba  Ba1       1.0  0.35628801584243774  0.38241302967071533  0.3645097613334656  1.0000
  Ba  Ba2       1.0  0.8565176129341125  0.8829958438873291  0.865388095378876  1.0000
  O   O2        1.0  0.8264657855033875  0.4115025401115417  0.8939920663833618  1.0000
  O   O3        1.0  0.3850392699241638  0.8548913598060608  0.33683979511260986  1.0000
  O   O4        1.0  0.385109007358551  0.4105377197265625  0.8924490809440613  1.0000
  Ba  Ba3       1.0  0.10645270347595215  0.13333004713058472  0.6152176260948181  1.0000
  O   O5        1.0  0.384064644575119  0.8539625406265259  0.8931769728660583  1.0000
  O   O6        1.0  0.8276954889297485  0.8537126779556274  0.3367436826229097  1.0000
