data_image0
_chemical_formula_structural       NdBaO2SbO2BaO3BaO4BaLaNd
_chemical_formula_sum              "Nd2 Ba4 O11 Sb1 La1"
_cell_length_a       4.546047265889048
_cell_length_b       8.987012206507636
_cell_length_c       9.441944122314453
_cell_angle_alpha    88.68911848386504
_cell_angle_beta     89.4685523569941
_cell_angle_gamma    89.62363176021712

_space_group_name_H-M_alt    "P 1"
_space_group_IT_number       1

loop_
  _space_group_symop_operation_xyz
  'x, y, z'

loop_
  _atom_site_type_symbol
  _atom_site_label
  _atom_site_symmetry_multiplicity
  _atom_site_fract_x
  _atom_site_fract_y
  _atom_site_fract_z
  _atom_site_occupancy
  Nd  Nd1       1.0  0.48659563064575195  0.6086636185646057  0.852240800857544  1.0000
  Ba  Ba1       1.0  0.9885965585708618  0.36028289794921875  0.6088070869445801  1.0000
  O   O1        1.0  0.9917160868644714  0.1083436906337738  0.852979838848114  1.0000
  O   O2        1.0  0.4903387129306793  0.3568289279937744  0.4338342845439911  1.0000
  Sb  Sb1       1.0  0.4849311411380768  0.10839774459600449  0.8549228310585022  1.0000
  O   O3        1.0  0.4838153123855591  0.5423977375030518  0.10138486325740814  1.0000
  O   O4        1.0  0.9865222573280334  0.6052795052528381  0.8549613356590271  1.0000
  Ba  Ba2       1.0  0.9870510697364807  0.36503466963768005  0.06458266824483871  1.0000
  O   O5        1.0  0.4887911081314087  0.8741664886474609  0.8860417008399963  1.0000
  O   O6        1.0  0.4891832768917084  0.673244833946228  0.6059769988059998  1.0000
  O   O7        1.0  0.9884430766105652  0.6096042394638062  0.35361650586128235  1.0000
  Ba  Ba3       1.0  0.9879732131958008  0.85158371925354  0.6443096399307251  1.0000
  O   O8        1.0  0.4862823188304901  0.34143388271331787  0.822901487350464  1.0000
  O   O9        1.0  0.4891414940357208  0.8643001914024353  0.2766138017177582  1.0000
  O   O10       1.0  0.9897290468215942  0.1263287216424942  0.21642126142978668  1.0000
  O   O11       1.0  0.9882192015647888  0.0920407772064209  0.49602818489074707  1.0000
  Ba  Ba4       1.0  0.9876282215118408  0.860262393951416  0.09789837896823883  1.0000
  La  La1       1.0  0.48939594626426697  0.1100262701511383  0.3580983281135559  1.0000
  Nd  Nd2       1.0  0.4879932403564453  0.610383152961731  0.3542795181274414  1.0000
