data_image0
_chemical_formula_structural       BiBaBiBa
_chemical_formula_sum              "Bi2 Ba2"
_cell_length_a       4.495422269734831
_cell_length_b       5.953787225509235
_cell_length_c       5.941184997558594
_cell_angle_alpha    96.81142890336982
_cell_angle_beta     89.95581117813074
_cell_angle_gamma    89.74612435377638

_space_group_name_H-M_alt    "P 1"
_space_group_IT_number       1

loop_
  _space_group_symop_operation_xyz
  'x, y, z'

loop_
  _atom_site_type_symbol
  _atom_site_label
  _atom_site_symmetry_multiplicity
  _atom_site_fract_x
  _atom_site_fract_y
  _atom_site_fract_z
  _atom_site_occupancy
  Bi  Bi1       1.0  0.511458158493042  0.5236844420433044  0.7021196484565735  1.0000
  Ba  Ba1       1.0  0.013998107984662056  0.4601590037345886  0.18486768007278442  1.0000
  Bi  Bi2       1.0  0.5153424739837646  0.9428788423538209  0.1334385871887207  1.0000
  Ba  Ba2       1.0  0.013519303873181343  0.0058714160695672035  0.6479314565658569  1.0000
