data_image0
_chemical_formula_structural       OBBa2O2BO3
_chemical_formula_sum              "O6 B2 Ba2"
_cell_length_a       4.581330803349994
_cell_length_b       5.325678248045393
_cell_length_c       7.008420467376709
_cell_angle_alpha    90.08324885062024
_cell_angle_beta     72.34179668797852
_cell_angle_gamma    90.17285410981579

_space_group_name_H-M_alt    "P 1"
_space_group_IT_number       1

loop_
  _space_group_symop_operation_xyz
  'x, y, z'

loop_
  _atom_site_type_symbol
  _atom_site_label
  _atom_site_symmetry_multiplicity
  _atom_site_fract_x
  _atom_site_fract_y
  _atom_site_fract_z
  _atom_site_occupancy
  O   O1        1.0  0.40096917748451233  0.6474391222000123  0.10717231035232544  1.0000
  B   B1        1.0  0.3322124183177948  0.4283721148967743  0.03291899338364601  1.0000
  Ba  Ba1       1.0  0.9150545597076416  0.9297959804534912  0.052533697336912155  1.0000
  Ba  Ba2       1.0  0.25007185339927673  0.43201366066932684  0.5098605751991272  1.0000
  O   O2        1.0  0.762637197971344  0.713743269443512  0.45263576507568365  1.0000
  O   O3        1.0  0.40896525979042053  0.20880402624607086  0.10367622226476668  1.0000
  B   B2        1.0  0.8278845548629761  0.9319593906402588  0.5293586254119872  1.0000
  O   O4        1.0  0.7604714632034302  0.15338939428329468  0.45595967769622814  1.0000
  O   O5        1.0  0.1643686294555664  0.42848449945449835  0.9051425457000732  1.0000
  O   O6        1.0  0.9929572939872742  0.9271647930145264  0.6600260734558105  1.0000
