# generated using pymatgen
data_BaC2O5
_symmetry_space_group_name_H-M   'P 1'
_cell_length_a   4.28993204
_cell_length_b   5.59748112
_cell_length_c   7.26439044
_cell_angle_alpha   117.77942404
_cell_angle_beta   111.54520176
_cell_angle_gamma   106.28612770
_symmetry_Int_Tables_number   1
_chemical_formula_structural   BaC2O5
_chemical_formula_sum   'Ba1 C2 O5'
_cell_volume   120.00530916
_cell_formula_units_Z   1
loop_
 _symmetry_equiv_pos_site_id
 _symmetry_equiv_pos_as_xyz
  1  'x, y, z'
loop_
 _atom_site_type_symbol
 _atom_site_label
 _atom_site_symmetry_multiplicity
 _atom_site_fract_x
 _atom_site_fract_y
 _atom_site_fract_z
 _atom_site_occupancy
  Ba  Ba0  1  0.03393827  0.20363358  0.59093139  1
  C  C1  1  0.79728603  0.31817039  0.14200314  1
  C  C2  1  0.14351201  0.76269726  0.06808665  1
  O  O3  1  0.57632274  0.10596637  0.91930990  1
  O  O4  1  0.83158011  0.60357820  0.83742171  1
  O  O5  1  0.35671129  0.64038529  0.10589955  1
  O  O6  1  0.25535490  0.04135656  0.26256691  1
  O  O7  1  0.00568782  0.52947758  0.36577232  1
