data_image0
_chemical_formula_structural       BaCaH4
_chemical_formula_sum              "Ba1 Ca1 H4"
_cell_length_a       4.166485326520003
_cell_length_b       4.153710807890146
_cell_length_c       7.18941593170166
_cell_angle_alpha    73.61650238923269
_cell_angle_beta     73.55340399311788
_cell_angle_gamma    60.44872527644136

_space_group_name_H-M_alt    "P 1"
_space_group_IT_number       1

loop_
  _space_group_symop_operation_xyz
  'x, y, z'

loop_
  _atom_site_type_symbol
  _atom_site_label
  _atom_site_symmetry_multiplicity
  _atom_site_fract_x
  _atom_site_fract_y
  _atom_site_fract_z
  _atom_site_occupancy
  Ba  Ba1       1.0  0.5955222249031067  0.9194428324699402  0.968371570110321  1.0000
  Ca  Ca1       1.0  0.0944657921791077  0.4197302758693695  0.4700489640235901  1.0000
  H   H1        1.0  0.40020254254341125  0.7246159315109253  0.5554997324943542  1.0000
  H   H2        1.0  0.20668479800224307  0.5308960676193237  0.1360707730054855  1.0000
  H   H3        1.0  0.7883164286613464  0.11311843991279602  0.38751617074012756  1.0000
  H   H4        1.0  0.9848865270614623  0.307781457901001  0.8041654825210571  1.0000
