data_image0
_chemical_formula_structural       BaSbBaCdSbCd
_chemical_formula_sum              "Ba2 Sb2 Cd2"
_cell_length_a       4.969796695693626
_cell_length_b       4.974221759245022
_cell_length_c       9.358155250549316
_cell_angle_alpha    105.07155232260105
_cell_angle_beta     105.43055321417326
_cell_angle_gamma    89.28477897583576

_space_group_name_H-M_alt    "P 1"
_space_group_IT_number       1

loop_
  _space_group_symop_operation_xyz
  'x, y, z'

loop_
  _atom_site_type_symbol
  _atom_site_label
  _atom_site_symmetry_multiplicity
  _atom_site_fract_x
  _atom_site_fract_y
  _atom_site_fract_z
  _atom_site_occupancy
  Ba  Ba1       1.0  0.7597178220748901  0.3606679439544678  0.1418693661689758  1.0000
  Sb  Sb1       1.0  0.3425537347793579  0.9455353617668153  0.3078649342060089  1.0000
  Ba  Ba2       1.0  0.00871886592358351  0.11149400472640993  0.6401652693748474  1.0000
  Cd  Cd1       1.0  0.1766233742237091  0.7771492600440979  0.9744364619255066  1.0000
  Sb  Sb2       1.0  0.5920775532722473  0.6928055882453918  0.807218611240387  1.0000
  Cd  Cd2       1.0  0.425816148519516  0.5293979048728943  0.47492748498916626  1.0000
