data_image0
_chemical_formula_structural       BaCuF3
_chemical_formula_sum              "Ba1 Cu1 F3"
_cell_length_a       4.220425618685255
_cell_length_b       4.23331412887735
_cell_length_c       4.2391486167907715
_cell_angle_alpha    89.98808382481742
_cell_angle_beta     90.03877748904314
_cell_angle_gamma    89.88854064920181

_space_group_name_H-M_alt    "P 1"
_space_group_IT_number       1

loop_
  _space_group_symop_operation_xyz
  'x, y, z'

loop_
  _atom_site_type_symbol
  _atom_site_label
  _atom_site_symmetry_multiplicity
  _atom_site_fract_x
  _atom_site_fract_y
  _atom_site_fract_z
  _atom_site_occupancy
  Ba  Ba1       1.0  0.6710752248764038  0.951076865196228  0.7212868332862854  1.0000
  Cu  Cu1       1.0  0.17043772339820862  0.4516986310482025  0.22208364307880402  1.0000
  F   F1        1.0  0.6711271405220032  0.45073437690734863  0.2211446613073349  1.0000
  F   F2        1.0  0.1706315279006958  0.4520193636417389  0.7201676368713379  1.0000
  F   F3        1.0  0.1695178896188736  0.9523053765296936  0.22166414558887482  1.0000
