data_image0
_chemical_formula_structural       DyOBaODyODyO4Dy
_chemical_formula_sum              "Dy4 O7 Ba1"
_cell_length_a       6.302490243787817
_cell_length_b       5.746807719191186
_cell_length_c       6.3245697021484375
_cell_angle_alpha    116.57791400421337
_cell_angle_beta     77.7012423695902
_cell_angle_gamma    116.71110390147999

_space_group_name_H-M_alt    "P 1"
_space_group_IT_number       1

loop_
  _space_group_symop_operation_xyz
  'x, y, z'

loop_
  _atom_site_type_symbol
  _atom_site_label
  _atom_site_symmetry_multiplicity
  _atom_site_fract_x
  _atom_site_fract_y
  _atom_site_fract_z
  _atom_site_occupancy
  Dy  Dy1       1.0  0.5108029842376709  0.23839162290096283  0.21396994590759277  1.0000
  O   O1        1.0  0.7195398211479188  0.24003264307975772  0.5068011283874512  1.0000
  Ba  Ba1       1.0  0.21953080594539645  0.7383579611778259  0.5055232644081116  1.0000
  O   O2        1.0  0.21831209957599643  0.23849752545356753  0.0069495453499257565  1.0000
  Dy  Dy2       1.0  0.5122789740562439  0.5305327773094177  0.7998473048210144  1.0000
  O   O3        1.0  0.717520833015442  0.7386723756790161  0.5063249468803406  1.0000
  Dy  Dy3       1.0  0.9244933724403382  0.9454645514488221  0.21400687098503113  1.0000
  O   O4        1.0  0.21753117442131045  0.23634171485900882  0.5064578056335449  1.0000
  O   O5        1.0  0.21776108443737033  0.7376655340194702  0.005646688863635028  1.0000
  O   O6        1.0  0.7182706594467164  0.4878813624382019  0.005911111831665012  1.0000
  O   O7        1.0  0.7174704670906068  0.987964391708374  0.0077190119773149135  1.0000
  Dy  Dy4       1.0  0.9257145524024964  0.23932939767837527  0.80029296875  1.0000
