data_image0
_chemical_formula_structural       BaOBaO3Pd2O2
_chemical_formula_sum              "Ba2 O6 Pd2"
_cell_length_a       4.091800953320062
_cell_length_b       4.094799835227022
_cell_length_c       8.188652992248535
_cell_angle_alpha    89.92862019470859
_cell_angle_beta     89.86017485870406
_cell_angle_gamma    89.95933555760547

_space_group_name_H-M_alt    "P 1"
_space_group_IT_number       1

loop_
  _space_group_symop_operation_xyz
  'x, y, z'

loop_
  _atom_site_type_symbol
  _atom_site_label
  _atom_site_symmetry_multiplicity
  _atom_site_fract_x
  _atom_site_fract_y
  _atom_site_fract_z
  _atom_site_occupancy
  Ba  Ba1       1.0  0.8509158492088318  0.891773521900177  0.6209134459495544  1.0000
  O   O1        1.0  0.852575957775116  0.3913693130016327  0.8685097098350525  1.0000
  Ba  Ba2       1.0  0.8575951457023621  0.8928751349449157  0.11952407658100128  1.0000
  O   O2        1.0  0.8507946133613586  0.3905809819698334  0.36959096789360046  1.0000
  O   O3        1.0  0.35030561685562134  0.8922232389450073  0.36906787753105164  1.0000
  O   O4        1.0  0.35205504298210144  0.3925442695617675  0.11874700337648392  1.0000
  Pd  Pd1       1.0  0.35290682315826416  0.39446720480918884  0.3695840537548065  1.0000
  Pd  Pd2       1.0  0.3527875244617462  0.3916475176811218  0.8697858452796936  1.0000
  O   O5        1.0  0.35169482231140137  0.8920789361000061  0.8681439757347107  1.0000
  O   O6        1.0  0.35221344232559204  0.39189067482948303  0.6163813471794128  1.0000
