# generated using pymatgen
data_BaPrCNO
_symmetry_space_group_name_H-M   'P 1'
_cell_length_a   3.86628104
_cell_length_b   3.86231816
_cell_length_c   6.25119615
_cell_angle_alpha   89.98171452
_cell_angle_beta   89.99416225
_cell_angle_gamma   90.00040858
_symmetry_Int_Tables_number   1
_chemical_formula_structural   BaPrCNO
_chemical_formula_sum   'Ba1 Pr1 C1 N1 O1'
_cell_volume   93.34790327
_cell_formula_units_Z   1
loop_
 _symmetry_equiv_pos_site_id
 _symmetry_equiv_pos_as_xyz
  1  'x, y, z'
loop_
 _atom_site_type_symbol
 _atom_site_label
 _atom_site_symmetry_multiplicity
 _atom_site_fract_x
 _atom_site_fract_y
 _atom_site_fract_z
 _atom_site_occupancy
  Ba  Ba0  1  0.24261474  0.06452244  0.88566201  1
  Pr  Pr1  1  0.74245025  0.56476478  0.36842010  1
  C  C2  1  0.74262628  0.56463658  0.76817363  1
  N  N3  1  0.74256860  0.56448851  0.96957509  1
  O  O4  1  0.24274726  0.06447477  0.35028869  1
