data_image0
_chemical_formula_structural       AsSrAsBa
_chemical_formula_sum              "As2 Sr1 Ba1"
_cell_length_a       4.586425702782462
_cell_length_b       4.600005661571934
_cell_length_c       6.481496810913086
_cell_angle_alpha    89.94734857323931
_cell_angle_beta     90.0819374538577
_cell_angle_gamma    89.98634212611769

_space_group_name_H-M_alt    "P 1"
_space_group_IT_number       1

loop_
  _space_group_symop_operation_xyz
  'x, y, z'

loop_
  _atom_site_type_symbol
  _atom_site_label
  _atom_site_symmetry_multiplicity
  _atom_site_fract_x
  _atom_site_fract_y
  _atom_site_fract_z
  _atom_site_occupancy
  As  As1       1.0  0.22831220924854279  0.024586686864495277  0.3809375464916229  1.0000
  Sr  Sr1       1.0  0.7287918925285339  0.5261495113372803  0.38276565074920654  1.0000
  As  As2       1.0  0.7291479110717773  0.5289698839187622  0.8845542669296265  1.0000
  Ba  Ba1       1.0  0.22889868915081024  0.027728289365768436  0.8823838829994202  1.0000
