data_image0
_chemical_formula_structural       SrI8Sr2I2BaSrI
_chemical_formula_sum              "Sr4 I11 Ba1"
_cell_length_a       4.865004044138342
_cell_length_b       8.904526024549858
_cell_length_c       18.962099075317383
_cell_angle_alpha    102.38955547170708
_cell_angle_beta     89.88666235847927
_cell_angle_gamma    89.83905592596368

_space_group_name_H-M_alt    "P 1"
_space_group_IT_number       1

loop_
  _space_group_symop_operation_xyz
  'x, y, z'

loop_
  _atom_site_type_symbol
  _atom_site_label
  _atom_site_symmetry_multiplicity
  _atom_site_fract_x
  _atom_site_fract_y
  _atom_site_fract_z
  _atom_site_occupancy
  Sr  Sr1       1.0  0.43466487526893616  0.43180400133132935  0.17565709352493286  1.0000
  I   I1        1.0  0.9337806105613708  0.17684754729270935  0.10475414991378784  1.0000
  I   I2        1.0  0.43625399470329285  0.8709916472434998  0.893089234828949  1.0000
  I   I3        1.0  0.4336256682872772  0.4004154801368714  0.6514259576797485  1.0000
  I   I4        1.0  0.4331209063529968  0.3861302137374878  0.9589861631393433  1.0000
  I   I5        1.0  0.9343875646591187  0.17974986135959625  0.7588367462158203  1.0000
  I   I6        1.0  0.9336028099060059  0.7717815041542053  0.670393168926239  1.0000
  I   I7        1.0  0.4322036802768707  0.7701206803321838  0.12438241392374039  1.0000
  I   I8        1.0  0.9315651655197144  0.07641315460205078  0.4947059154510498  1.0000
  Sr  Sr2       1.0  0.9324686527252197  0.4649991989135743  0.5437888503074646  1.0000
  Sr  Sr3       1.0  0.9313459396362305  0.9533792734146119  0.23023074865341187  1.0000
  I   I9        1.0  0.43118301033973694  0.6450061798095703  0.4775574505329132  1.0000
  I   I10       1.0  0.4322929382324219  0.1961003839969635  0.2963906228542328  1.0000
  Ba  Ba1       1.0  0.4318350851535797  0.9998511075973511  0.6131955981254578  1.0000
  Sr  Sr4       1.0  0.9353852272033691  0.1217086613178253  0.9211186766624451  1.0000
  I   I11       1.0  0.9340056777000427  0.612695038318634  0.2808629274368286  1.0000
