# generated using pymatgen
data_BaSrLiRh9
_symmetry_space_group_name_H-M   'P 1'
_cell_length_a   4.25466459
_cell_length_b   5.45339700
_cell_length_c   9.33308503
_cell_angle_alpha   89.84587859
_cell_angle_beta   90.00034655
_cell_angle_gamma   90.00020241
_symmetry_Int_Tables_number   1
_chemical_formula_structural   BaSrLiRh9
_chemical_formula_sum   'Ba1 Sr1 Li1 Rh9'
_cell_volume   216.54895655
_cell_formula_units_Z   1
loop_
 _symmetry_equiv_pos_site_id
 _symmetry_equiv_pos_as_xyz
  1  'x, y, z'
loop_
 _atom_site_type_symbol
 _atom_site_label
 _atom_site_symmetry_multiplicity
 _atom_site_fract_x
 _atom_site_fract_y
 _atom_site_fract_z
 _atom_site_occupancy
  Ba  Ba0  1  0.52443461  0.84133421  0.01200089  1
  Sr  Sr1  1  0.52444099  0.34407179  0.51877517  1
  Li  Li2  1  0.02442398  0.09156500  0.27099627  1
  Rh  Rh3  1  0.02442449  0.58033765  0.26794595  1
  Rh  Rh4  1  0.02443260  0.36175146  0.01315600  1
  Rh  Rh5  1  0.52443302  0.84354209  0.67435863  1
  Rh  Rh6  1  0.02443276  0.09508930  0.75738229  1
  Rh  Rh7  1  0.02443570  0.58925459  0.76021151  1
  Rh  Rh8  1  0.52442787  0.86540334  0.34734202  1
  Rh  Rh9  1  0.52442610  0.31586954  0.18989811  1
  Rh  Rh10  1  0.52443311  0.34198947  0.84728542  1
  Rh  Rh11  1  0.02443208  0.81524069  0.51238151  1
