data_image0
_chemical_formula_structural       Be3Co
_chemical_formula_sum              "Be3 Co1"
_cell_length_a       3.6293710023308527
_cell_length_b       3.6257597598432385
_cell_length_c       3.6341609954833984
_cell_angle_alpha    59.99957945033858
_cell_angle_beta     60.03525441123534
_cell_angle_gamma    60.32989505137606

_space_group_name_H-M_alt    "P 1"
_space_group_IT_number       1

loop_
  _space_group_symop_operation_xyz
  'x, y, z'

loop_
  _atom_site_type_symbol
  _atom_site_label
  _atom_site_symmetry_multiplicity
  _atom_site_fract_x
  _atom_site_fract_y
  _atom_site_fract_z
  _atom_site_occupancy
  Be  Be1       1.0  0.4081669747829437  0.4985737204551697  0.15872138738632194  1.0000
  Be  Be2       1.0  0.1578328162431717  0.24770155549049377  0.9087628722190856  1.0000
  Be  Be3       1.0  0.9081596136093141  0.9982749223709108  0.658390164375305  1.0000
  Co  Co1       1.0  0.6579629778862  0.7486743330955505  0.40883573889732355  1.0000
