data_image0
_chemical_formula_structural       RuBe2Ru
_chemical_formula_sum              "Ru2 Be2"
_cell_length_a       4.02008393775814
_cell_length_b       4.012969904777821
_cell_length_c       4.03771448135376
_cell_angle_alpha    59.871143127035594
_cell_angle_beta     59.91357427175013
_cell_angle_gamma    59.89192290582907

_space_group_name_H-M_alt    "P 1"
_space_group_IT_number       1

loop_
  _space_group_symop_operation_xyz
  'x, y, z'

loop_
  _atom_site_type_symbol
  _atom_site_label
  _atom_site_symmetry_multiplicity
  _atom_site_fract_x
  _atom_site_fract_y
  _atom_site_fract_z
  _atom_site_occupancy
  Ru  Ru1       1.0  0.10821075737476349  0.915668785572052  0.16184912621974945  1.0000
  Be  Be1       1.0  0.6074622273445129  0.4164973199367523  0.65924072265625  1.0000
  Be  Be2       1.0  0.35872095823287964  0.16524511575698853  0.41197678446769714  1.0000
  Ru  Ru2       1.0  0.8576851487159729  0.6667504906654358  0.9114850759506226  1.0000
