data_image0
_chemical_formula_structural       H4B2H2
_chemical_formula_sum              "H6 B2"
_cell_length_a       4.438504446366541
_cell_length_b       4.426983819656702
_cell_length_c       4.067286014556885
_cell_angle_alpha    103.30815469745286
_cell_angle_beta     104.61084759483454
_cell_angle_gamma    109.17414634259778

_space_group_name_H-M_alt    "P 1"
_space_group_IT_number       1

loop_
  _space_group_symop_operation_xyz
  'x, y, z'

loop_
  _atom_site_type_symbol
  _atom_site_label
  _atom_site_symmetry_multiplicity
  _atom_site_fract_x
  _atom_site_fract_y
  _atom_site_fract_z
  _atom_site_occupancy
  H   H1        1.0  0.4811093807220459  0.9199106097221376  0.4414253532886505  1.0000
  H   H2        1.0  0.6506409645080568  0.7903016805648805  0.026449516415596064  1.0000
  H   H3        1.0  0.1557723581790924  0.29831433296203613  0.5449367165565491  1.0000
  H   H4        1.0  0.3606557846069336  0.0945456251502037  0.025046981871128082  1.0000
  B   B1        1.0  0.06785734742879866  0.5081937313079834  0.7494546175003052  1.0000
  B   B2        1.0  0.42955741286277777  0.8708457350730897  0.104322649538517  1.0000
  H   H5        1.0  0.9771698117256165  0.410285621881485  0.9754193425178528  1.0000
  H   H6        1.0  0.8592357039451599  0.5902435779571533  0.5398989915847778  1.0000
