# generated using pymatgen
data_BH4
_symmetry_space_group_name_H-M   'P 1'
_cell_length_a   4.56231265
_cell_length_b   4.45970656
_cell_length_c   4.70932130
_cell_angle_alpha   75.98273515
_cell_angle_beta   81.85685648
_cell_angle_gamma   99.37559008
_symmetry_Int_Tables_number   1
_chemical_formula_structural   BH4
_chemical_formula_sum   'B2 H8'
_cell_volume   90.06700269
_cell_formula_units_Z   2
loop_
 _symmetry_equiv_pos_site_id
 _symmetry_equiv_pos_as_xyz
  1  'x, y, z'
loop_
 _atom_site_type_symbol
 _atom_site_label
 _atom_site_symmetry_multiplicity
 _atom_site_fract_x
 _atom_site_fract_y
 _atom_site_fract_z
 _atom_site_occupancy
  B  B0  1  0.48859010  0.16209805  0.24463122  1
  B  B1  1  0.79659036  0.53257761  0.92387984  1
  H  H2  1  0.60520496  0.25511727  0.96810088  1
  H  H3  1  -0.02839783  0.54157288  0.09206541  1
  H  H4  1  0.61646548  0.90737088  0.32402569  1
  H  H5  1  0.70228582  0.05278190  0.38974564  1
  H  H6  1  0.64380346  0.73104265  0.89747071  1
  H  H7  1  0.43376420  0.30631258  0.42120228  1
  H  H8  1  -0.09352316  0.49007038  0.69009769  1
  H  H9  1  0.27637667  -0.03176401  0.23451003  1
