data_image0
_chemical_formula_structural       BrClBr2BiBr2BiBr2
_chemical_formula_sum              "Br7 Cl1 Bi2"
_cell_length_a       8.351605856276155
_cell_length_b       8.269760816147807
_cell_length_c       8.376526832580566
_cell_angle_alpha    61.08905397048758
_cell_angle_beta     60.27457556462394
_cell_angle_gamma    60.75924733118624

_space_group_name_H-M_alt    "P 1"
_space_group_IT_number       1

loop_
  _space_group_symop_operation_xyz
  'x, y, z'

loop_
  _atom_site_type_symbol
  _atom_site_label
  _atom_site_symmetry_multiplicity
  _atom_site_fract_x
  _atom_site_fract_y
  _atom_site_fract_z
  _atom_site_occupancy
  Br  Br1       1.0  0.5719661712646484  0.6671406626701355  0.4025658667087555  1.0000
  Cl  Cl1       1.0  0.12485553324222566  0.10453230887651443  0.9655589461326599  1.0000
  Br  Br2       1.0  0.09900435060262677  0.6412755846977234  0.4335391521453858  1.0000
  Br  Br3       1.0  0.10612305998802186  0.12998998165130615  0.4332517683506012  1.0000
  Bi  Bi1       1.0  0.8484597802162172  0.8841902613639832  0.6835688948631287  1.0000
  Br  Br4       1.0  0.618309259414673  0.11721470952033997  0.44818952679634094  1.0000
  Br  Br5       1.0  0.07779498398303987  0.6533712148666383  0.9174142479896545  1.0000
  Bi  Bi2       1.0  0.34628295898437506  0.8892778754234313  0.1795099824666978  1.0000
  Br  Br6       1.0  0.592294216156006  0.6421009302139282  0.9251585602760316  1.0000
  Br  Br7       1.0  0.5872452259063722  0.1387193500995636  0.9332312345504761  1.0000
