data_image0
_chemical_formula_structural       Se2BiSe2Bi2Se2Bi
_chemical_formula_sum              "Se6 Bi4"
_cell_length_a       4.183202780165372
_cell_length_b       7.233980562857427
_cell_length_c       11.153218269348145
_cell_angle_alpha    109.59983689456591
_cell_angle_beta     79.41712312688696
_cell_angle_gamma    90.0873605040754

_space_group_name_H-M_alt    "P 1"
_space_group_IT_number       1

loop_
  _space_group_symop_operation_xyz
  'x, y, z'

loop_
  _atom_site_type_symbol
  _atom_site_label
  _atom_site_symmetry_multiplicity
  _atom_site_fract_x
  _atom_site_fract_y
  _atom_site_fract_z
  _atom_site_occupancy
  Se  Se1       1.0  0.17195482552051544  0.0696806088089943  0.20967672765254974  1.0000
  Se  Se2       1.0  0.8404944539070129  0.7358366250991821  0.8767212629318237  1.0000
  Bi  Bi1       1.0  0.2551637291908264  0.6541975140571595  0.04327176883816719  1.0000
  Se  Se3       1.0  0.006038194987922907  0.9056420922279359  0.540554404258728  1.0000
  Se  Se4       1.0  0.6690207719802856  0.5798786878585815  0.21676748991012573  1.0000
  Bi  Bi2       1.0  0.7546590566635132  0.1578427255153656  0.04464238137006758  1.0000
  Bi  Bi3       1.0  0.07863262295722961  0.4848108589649201  0.395891934633255  1.0000
  Se  Se5       1.0  0.5010852217674255  0.39894860982894903  0.5496469736099243  1.0000
  Se  Se6       1.0  0.337719202041626  0.24374152719974518  0.8790625929832458  1.0000
  Bi  Bi4       1.0  0.42897999286651606  0.8165330290794374  0.6894709467887878  1.0000
