# generated using pymatgen
data_Bi3BAs2Pd6PtRh
_symmetry_space_group_name_H-M   'P 1'
_cell_length_a   3.41699292
_cell_length_b   7.05139555
_cell_length_c   10.78847642
_cell_angle_alpha   97.33100290
_cell_angle_beta   89.97613005
_cell_angle_gamma   89.98606637
_symmetry_Int_Tables_number   1
_chemical_formula_structural   Bi3BAs2Pd6PtRh
_chemical_formula_sum   'Bi3 B1 As2 Pd6 Pt1 Rh1'
_cell_volume   257.81875313
_cell_formula_units_Z   1
loop_
 _symmetry_equiv_pos_site_id
 _symmetry_equiv_pos_as_xyz
  1  'x, y, z'
loop_
 _atom_site_type_symbol
 _atom_site_label
 _atom_site_symmetry_multiplicity
 _atom_site_fract_x
 _atom_site_fract_y
 _atom_site_fract_z
 _atom_site_occupancy
  Bi  Bi0  1  0.49402544  0.83939430  0.49679375  1
  Bi  Bi1  1  0.99395884  0.73070335  0.94019971  1
  Bi  Bi2  1  0.99363643  0.36471991  0.55291081  1
  B  B3  1  0.49431983  0.40823483  0.19062383  1
  As  As4  1  0.49296975  0.14052212  0.86973523  1
  As  As5  1  0.99424665  0.97134163  0.23994765  1
  Pd  Pd6  1  0.99321797  0.95539993  0.72304921  1
  Pd  Pd7  1  0.49412131  0.22527327  0.34885744  1
  Pd  Pd8  1  0.99408551  0.54563160  0.32577546  1
  Pd  Pd9  1  0.99291517  0.35920354  0.80881998  1
  Pd  Pd10  1  0.49420495  0.71037613  0.15444801  1
  Pd  Pd11  1  0.49323979  0.63182802  0.71060604  1
  Pt  Pt12  1  0.49449482  0.09947234  0.09495340  1
  Rh  Rh13  1  0.99448277  0.40307031  0.07608893  1
