data_image0
_chemical_formula_structural       OBi2O2Bi2O
_chemical_formula_sum              "O4 Bi4"
_cell_length_a       3.9028399531838676
_cell_length_b       3.9090716318072856
_cell_length_c       12.530198097229004
_cell_angle_alpha    98.82145186177308
_cell_angle_beta     90.3790506591538
_cell_angle_gamma    120.26381567032752

_space_group_name_H-M_alt    "P 1"
_space_group_IT_number       1

loop_
  _space_group_symop_operation_xyz
  'x, y, z'

loop_
  _atom_site_type_symbol
  _atom_site_label
  _atom_site_symmetry_multiplicity
  _atom_site_fract_x
  _atom_site_fract_y
  _atom_site_fract_z
  _atom_site_occupancy
  O   O1        1.0  0.6541232466697693  0.48386216163635254  0.6535832285881042  1.0000
  Bi  Bi1       1.0  0.582564651966095  0.34108659625053406  0.44735628366470337  1.0000
  Bi  Bi2       1.0  0.8467240929603576  0.8560680747032166  0.21460454165935516  1.0000
  O   O2        1.0  0.7813116312026978  0.7340217828750611  0.03131002187728882  1.0000
  O   O3        1.0  0.16147182881832123  0.49158725142478943  0.1618298590183258  1.0000
  Bi  Bi3       1.0  0.33112731575965887  0.8365952968597413  0.689232587814331  1.0000
  Bi  Bi4       1.0  0.09205912798643115  0.3586693704128266  0.9675505161285402  1.0000
  O   O4        1.0  0.3910665214061737  0.9581296443939209  0.8691303133964539  1.0000
