data_image0
_chemical_formula_structural       BPd5Ir
_chemical_formula_sum              "B1 Pd5 Ir1"
_cell_length_a       2.7933010650310752
_cell_length_b       2.791168701328565
_cell_length_c       13.968326568603516
_cell_angle_alpha    90.17248526343339
_cell_angle_beta     89.91520570335871
_cell_angle_gamma    119.82877189777088

_space_group_name_H-M_alt    "P 1"
_space_group_IT_number       1

loop_
  _space_group_symop_operation_xyz
  'x, y, z'

loop_
  _atom_site_type_symbol
  _atom_site_label
  _atom_site_symmetry_multiplicity
  _atom_site_fract_x
  _atom_site_fract_y
  _atom_site_fract_z
  _atom_site_occupancy
  B   B1        1.0  0.5977824330329895  0.3181043267250061  0.2727971076965332  1.0000
  Pd  Pd1       1.0  0.9310694932937621  0.9823846817016602  0.5387570858001709  1.0000
  Pd  Pd2       1.0  0.25714337825775146  0.6445039510726929  0.009689867496490477  1.0000
  Pd  Pd3       1.0  0.2647877633571625  0.6522389650344849  0.3725729882717132  1.0000
  Pd  Pd4       1.0  0.9295748472213744  0.9827969074249266  0.17674814164638517  1.0000
  Pd  Pd5       1.0  0.9259120821952819  0.9789827466011046  0.8516305685043334  1.0000
  Ir  Ir1       1.0  0.5958400368690491  0.3135811686515808  0.6955501437187194  1.0000
