data_image0
_chemical_formula_structural       CaH2CaH2Ca2H2
_chemical_formula_sum              "Ca4 H6"
_cell_length_a       3.82625121652889
_cell_length_b       5.991881474817969
_cell_length_c       6.626882553100586
_cell_angle_alpha    89.54557633784862
_cell_angle_beta     89.45847782124696
_cell_angle_gamma    89.90604642070329

_space_group_name_H-M_alt    "P 1"
_space_group_IT_number       1

loop_
  _space_group_symop_operation_xyz
  'x, y, z'

loop_
  _atom_site_type_symbol
  _atom_site_label
  _atom_site_symmetry_multiplicity
  _atom_site_fract_x
  _atom_site_fract_y
  _atom_site_fract_z
  _atom_site_occupancy
  Ca  Ca1       1.0  0.6832570433616638  0.6899473667144775  0.4698203802108764  1.0000
  H   H1        1.0  0.6816304922103882  0.2995377480983734  0.46703955531120295  1.0000
  H   H2        1.0  0.1806858777999878  0.5813931822776794  0.3022838234901428  1.0000
  Ca  Ca2       1.0  0.1806292086839676  0.20013196766376493  0.2972915470600128  1.0000
  H   H3        1.0  0.1819838583469391  0.30312770605087275  0.9659359455108641  1.0000
  H   H4        1.0  0.6835030913352966  0.9457867145538329  0.13277217745780945  1.0000
  Ca  Ca3       1.0  0.6806419491767883  0.20014023780822754  0.7989636659622191  1.0000
  Ca  Ca4       1.0  0.18350905179977417  0.6859735250473022  0.9689995646476744  1.0000
  H   H5        1.0  0.682776153087616  0.5867010354995728  0.8009164929389953  1.0000
  H   H6        1.0  0.18283087015151978  0.9424229264259338  0.6333731412887572  1.0000
