data_image0
_chemical_formula_structural       HgCaNCaN
_chemical_formula_sum              "Hg1 Ca2 N2"
_cell_length_a       3.611405500833892
_cell_length_b       3.6013801472568705
_cell_length_c       7.3048810958862305
_cell_angle_alpha    104.21399489027384
_cell_angle_beta     104.00262692421259
_cell_angle_gamma    89.70148941795804

_space_group_name_H-M_alt    "P 1"
_space_group_IT_number       1

loop_
  _space_group_symop_operation_xyz
  'x, y, z'

loop_
  _atom_site_type_symbol
  _atom_site_label
  _atom_site_symmetry_multiplicity
  _atom_site_fract_x
  _atom_site_fract_y
  _atom_site_fract_z
  _atom_site_occupancy
  Hg  Hg1       1.0  0.7407937049865722  0.7678440809249878  0.16308289766311646  1.0000
  Ca  Ca1       1.0  0.4126933813095092  0.43769097328186035  0.5041756629943848  1.0000
  N   N1        1.0  0.5836299061775208  0.6130548715591431  0.8536400794982911  1.0000
  Ca  Ca2       1.0  0.06762351095676422  0.09611441195011139  0.8206828236579896  1.0000
  N   N2        1.0  0.8985479474067687  0.9212827086448669  0.47272694110870367  1.0000
