data_image0
_chemical_formula_structural       CaAsCaMgAsMgGeMg2As3
_chemical_formula_sum              "Ca2 As5 Mg4 Ge1"
_cell_length_a       4.196321235287203
_cell_length_b       6.92623455241768
_cell_length_c       9.640230178833008
_cell_angle_alpha    83.29503781922148
_cell_angle_beta     102.84458455828421
_cell_angle_gamma    90.01252926437266

_space_group_name_H-M_alt    "P 1"
_space_group_IT_number       1

loop_
  _space_group_symop_operation_xyz
  'x, y, z'

loop_
  _atom_site_type_symbol
  _atom_site_label
  _atom_site_symmetry_multiplicity
  _atom_site_fract_x
  _atom_site_fract_y
  _atom_site_fract_z
  _atom_site_occupancy
  Ca  Ca1       1.0  0.04537181556224823  0.253391832113266  0.9782518148422243  1.0000
  As  As1       1.0  0.43151170015335083  0.1325129270553589  0.7540247440338135  1.0000
  Ca  Ca2       1.0  0.2838313579559326  0.055903598666191094  0.4481671154499054  1.0000
  Mg  Mg1       1.0  0.6547461152076721  0.9359718561172485  0.19478198885917664  1.0000
  As  As2       1.0  0.44456565380096436  0.5177308320999146  0.7784905433654785  1.0000
  Mg  Mg2       1.0  0.8577089905738831  0.3760368525981903  0.6025954484939575  1.0000
  Ge  Ge1       1.0  0.5771124362945557  0.5707426071166992  0.042126517742872245  1.0000
  Mg  Mg3       1.0  0.2249951362609863  0.5670683979988098  0.33287063241004944  1.0000
  Mg  Mg4       1.0  0.9328418970108032  0.8244966268539428  0.7525039911270142  1.0000
  As  As3       1.0  0.7908684611320496  0.7531619071960449  0.46375608444213867  1.0000
  As  As4       1.0  0.08523697406053543  0.7926806211471558  0.05919509381055832  1.0000
  As  As5       1.0  0.6850776672363281  0.29798078536987305  0.2533327043056488  1.0000
