data_image0
_chemical_formula_structural       FAlFCaFAgF3
_chemical_formula_sum              "F6 Al1 Ca1 Ag1"
_cell_length_a       5.772508260108158
_cell_length_b       5.778371247642672
_cell_length_c       5.776397705078125
_cell_angle_alpha    59.95251464351877
_cell_angle_beta     60.05530839230414
_cell_angle_gamma    60.10263379835137

_space_group_name_H-M_alt    "P 1"
_space_group_IT_number       1

loop_
  _space_group_symop_operation_xyz
  'x, y, z'

loop_
  _atom_site_type_symbol
  _atom_site_label
  _atom_site_symmetry_multiplicity
  _atom_site_fract_x
  _atom_site_fract_y
  _atom_site_fract_z
  _atom_site_occupancy
  F   F1        1.0  0.9751158952713013  0.36145555973052973  0.05423027276992798  1.0000
  Al  Al1       1.0  0.7517030239105225  0.13805040717124936  0.2772427797317505  1.0000
  F   F2        1.0  0.5297202467918396  0.35991099476814264  0.05478204786777496  1.0000
  Ca  Ca1       1.0  0.2507623732089997  0.6388453245162964  0.7779539227485657  1.0000
  F   F3        1.0  0.5291700959205629  0.9136714339256286  0.5005308389663696  1.0000
  Ag  Ag1       1.0  0.002148738130927086  0.3867840766906738  0.5273340344429018  1.0000
  F   F4        1.0  0.9740154147148132  0.9154416918754577  0.05419649928808212  1.0000
  F   F5        1.0  0.5286325812339783  0.35976544022560114  0.5017608404159546  1.0000
  F   F6        1.0  0.9739532470703125  0.9150176644325255  0.5007792711257935  1.0000
