# generated using pymatgen
data_CaBP
_symmetry_space_group_name_H-M   'P 1'
_cell_length_a   3.41935006
_cell_length_b   3.42037324
_cell_length_c   4.30684965
_cell_angle_alpha   89.99249637
_cell_angle_beta   89.98203333
_cell_angle_gamma   59.98468283
_symmetry_Int_Tables_number   1
_chemical_formula_structural   CaBP
_chemical_formula_sum   'Ca1 B1 P1'
_cell_volume   43.61544755
_cell_formula_units_Z   1
loop_
 _symmetry_equiv_pos_site_id
 _symmetry_equiv_pos_as_xyz
  1  'x, y, z'
loop_
 _atom_site_type_symbol
 _atom_site_label
 _atom_site_symmetry_multiplicity
 _atom_site_fract_x
 _atom_site_fract_y
 _atom_site_fract_z
 _atom_site_occupancy
  Ca  Ca0  1  0.11845106  0.33269898  0.21786704  1
  B  B1  1  0.45224362  0.66596078  0.71858861  1
  P  P2  1  0.78542138  0.99934272  0.71816727  1
