data_image0
_chemical_formula_structural       HoO3Ho3OCaO2
_chemical_formula_sum              "Ho4 O6 Ca1"
_cell_length_a       3.5049503556004713
_cell_length_b       5.744553892664527
_cell_length_c       8.903603553771973
_cell_angle_alpha    107.07439624262953
_cell_angle_beta     90.39383805093298
_cell_angle_gamma    90.59482322801145

_space_group_name_H-M_alt    "P 1"
_space_group_IT_number       1

loop_
  _space_group_symop_operation_xyz
  'x, y, z'

loop_
  _atom_site_type_symbol
  _atom_site_label
  _atom_site_symmetry_multiplicity
  _atom_site_fract_x
  _atom_site_fract_y
  _atom_site_fract_z
  _atom_site_occupancy
  Ho  Ho1       1.0  0.47026681900024414  0.9703395962715149  0.07984039932489395  1.0000
  O   O1        1.0  0.46988484263420105  0.5123509168624878  0.7018002867698669  1.0000
  O   O2        1.0  0.4686262607574463  0.8621099591255188  0.31741487979888916  1.0000
  O   O3        1.0  0.47236090898513794  0.14711432158946988  0.884607195854187  1.0000
  Ho  Ho2       1.0  0.4690403938293457  0.21756061911582944  0.4689492881298065  1.0000
  Ho  Ho3       1.0  0.46903979778289795  0.8566089868545531  0.6599094867706299  1.0000
  Ho  Ho4       1.0  0.9706614017486572  0.3846938908100128  0.8280207514762878  1.0000
  O   O4        1.0  0.9697892665863037  0.06393405050039291  0.5989207625389099  1.0000
  Ca  Ca1       1.0  0.9668464660644531  0.6067985892295836  0.26436111330986023  1.0000
  O   O5        1.0  0.9701966047286987  0.728674054145813  0.02722790651023388  1.0000
  O   O6        1.0  0.4659096598625183  0.32633069157600403  0.25518420338630676  1.0000
