data_image0
_chemical_formula_structural       CaAuPb
_chemical_formula_sum              "Ca1 Au1 Pb1"
_cell_length_a       4.975658409008334
_cell_length_b       4.976341950659083
_cell_length_c       4.977177619934082
_cell_angle_alpha    59.831037755393375
_cell_angle_beta     59.67021610602611
_cell_angle_gamma    59.85338543082079

_space_group_name_H-M_alt    "P 1"
_space_group_IT_number       1

loop_
  _space_group_symop_operation_xyz
  'x, y, z'

loop_
  _atom_site_type_symbol
  _atom_site_label
  _atom_site_symmetry_multiplicity
  _atom_site_fract_x
  _atom_site_fract_y
  _atom_site_fract_z
  _atom_site_occupancy
  Ca  Ca1       1.0  0.07520244270563126  0.41010528802871704  0.05656033754348754  1.0000
  Au  Au1       1.0  0.8253708481788635  0.16086769104003906  0.8066264986991882  1.0000
  Pb  Pb1       1.0  0.5756978392601013  0.9112797975540161  0.5574216246604919  1.0000
