data_image0
_chemical_formula_structural       BiOI2CdI3
_chemical_formula_sum              "Bi1 O1 I5 Cd1"
_cell_length_a       4.234077959568573
_cell_length_b       4.237548056793971
_cell_length_c       18.69131851196289
_cell_angle_alpha    90.40442482509197
_cell_angle_beta     96.76729225769678
_cell_angle_gamma    120.45793751850049

_space_group_name_H-M_alt    "P 1"
_space_group_IT_number       1

loop_
  _space_group_symop_operation_xyz
  'x, y, z'

loop_
  _atom_site_type_symbol
  _atom_site_label
  _atom_site_symmetry_multiplicity
  _atom_site_fract_x
  _atom_site_fract_y
  _atom_site_fract_z
  _atom_site_occupancy
  Bi  Bi1       1.0  0.059815593063831385  0.5641882419586183  0.4205739200115204  1.0000
  O   O1        1.0  0.3927152156829834  0.22990626096725464  0.41766268014907837  1.0000
  I   I1        1.0  0.07543393969535828  0.07705296576023102  0.9324259161949158  1.0000
  I   I2        1.0  0.6149556636810303  0.3459419012069702  0.745413601398468  1.0000
  Cd  Cd1       1.0  0.3471097946166992  0.7101110219955444  0.8405828475952148  1.0000
  I   I3        1.0  0.8056322932243347  0.9387661814689636  0.5361080765724182  1.0000
  I   I4        1.0  0.65031898021698  0.8595979809761047  0.3019859194755554  1.0000
  I   I5        1.0  0.8688698410987854  0.4717744588851929  0.12742559611797333  1.0000
