# generated using pymatgen
data_CdCo5
_symmetry_space_group_name_H-M   'P 1'
_cell_length_a   2.72892792
_cell_length_b   2.72875315
_cell_length_c   10.04147612
_cell_angle_alpha   90.04870958
_cell_angle_beta   90.06032808
_cell_angle_gamma   89.95307427
_symmetry_Int_Tables_number   1
_chemical_formula_structural   CdCo5
_chemical_formula_sum   'Cd1 Co5'
_cell_volume   74.77446797
_cell_formula_units_Z   1
loop_
 _symmetry_equiv_pos_site_id
 _symmetry_equiv_pos_as_xyz
  1  'x, y, z'
loop_
 _atom_site_type_symbol
 _atom_site_label
 _atom_site_symmetry_multiplicity
 _atom_site_fract_x
 _atom_site_fract_y
 _atom_site_fract_z
 _atom_site_occupancy
  Cd  Cd0  1  0.40070909  0.80745436  0.29039940  1
  Co  Co1  1  0.90086621  0.30764064  0.49624404  1
  Co  Co2  1  0.90083695  0.30762981  0.79049192  1
  Co  Co3  1  0.90071269  0.30751599  0.08486921  1
  Co  Co4  1  0.40073026  0.80753948  0.63847380  1
  Co  Co5  1  0.40086190  0.80764067  0.94243306  1
