data_image0
_chemical_formula_structural       CdI2CdI4Cd
_chemical_formula_sum              "Cd3 I6"
_cell_length_a       4.346198213002092
_cell_length_b       4.34496490278297
_cell_length_c       22.422842025756836
_cell_angle_alpha    90.17973894345853
_cell_angle_beta     90.1014034869317
_cell_angle_gamma    120.50136692074474

_space_group_name_H-M_alt    "P 1"
_space_group_IT_number       1

loop_
  _space_group_symop_operation_xyz
  'x, y, z'

loop_
  _atom_site_type_symbol
  _atom_site_label
  _atom_site_symmetry_multiplicity
  _atom_site_fract_x
  _atom_site_fract_y
  _atom_site_fract_z
  _atom_site_occupancy
  Cd  Cd1       1.0  0.20298495888710022  0.7183251976966858  0.1639573872089386  1.0000
  I   I1        1.0  0.8686008453369141  0.05069203302264214  0.0855119600892067  1.0000
  I   I2        1.0  0.5250604152679443  0.3873147368431092  0.7560845017433167  1.0000
  Cd  Cd2       1.0  0.1950402706861496  0.7215480804443359  0.47983512282371515  1.0000
  I   I3        1.0  0.8631116151809692  0.05619537830352783  0.41460272669792175  1.0000
  I   I4        1.0  0.19517350196838384  0.720302700996399  0.9122619628906249  1.0000
  I   I5        1.0  0.5352266430854797  0.38622456789016724  0.24240094423294065  1.0000
  I   I6        1.0  0.19065563380718237  0.7206028699874879  0.5939462184906006  1.0000
  Cd  Cd3       1.0  0.8597054481506348  0.054447878152132034  0.8327824473381042  1.0000
