data_image0
_chemical_formula_structural       SbCdTe2
_chemical_formula_sum              "Sb1 Cd1 Te2"
_cell_length_a       4.31100182715949
_cell_length_b       4.298563535105897
_cell_length_c       7.6625165939331055
_cell_angle_alpha    73.67112429557606
_cell_angle_beta     73.40260122888171
_cell_angle_gamma    59.91928671947685

_space_group_name_H-M_alt    "P 1"
_space_group_IT_number       1

loop_
  _space_group_symop_operation_xyz
  'x, y, z'

loop_
  _atom_site_type_symbol
  _atom_site_label
  _atom_site_symmetry_multiplicity
  _atom_site_fract_x
  _atom_site_fract_y
  _atom_site_fract_z
  _atom_site_occupancy
  Sb  Sb1       1.0  0.007533916272222996  0.5171197056770325  0.1340842843055725  1.0000
  Cd  Cd1       1.0  0.5070682764053345  0.016735760495066643  0.6337275505065918  1.0000
  Te  Te1       1.0  0.25707748532295227  0.7662631869316101  0.3863899111747741  1.0000
  Te  Te2       1.0  0.7576679587364197  0.2671000063419342  0.8822256922721862  1.0000
