data_image0
_chemical_formula_structural       SbFCdF3
_chemical_formula_sum              "Sb1 F4 Cd1"
_cell_length_a       3.9664705129295017
_cell_length_b       3.9681880786043804
_cell_length_c       6.871016979217529
_cell_angle_alpha    125.01944253450992
_cell_angle_beta     89.88057664324354
_cell_angle_gamma    89.84943100600613

_space_group_name_H-M_alt    "P 1"
_space_group_IT_number       1

loop_
  _space_group_symop_operation_xyz
  'x, y, z'

loop_
  _atom_site_type_symbol
  _atom_site_label
  _atom_site_symmetry_multiplicity
  _atom_site_fract_x
  _atom_site_fract_y
  _atom_site_fract_z
  _atom_site_occupancy
  Sb  Sb1       1.0  0.23275458812713623  0.7276186943054199  0.8945687413215638  1.0000
  F   F1        1.0  0.23210014402866364  0.4788273870944976  0.142449751496315  1.0000
  Cd  Cd1       1.0  0.7329694032669067  0.7299637794494628  0.39580181241035467  1.0000
  F   F2        1.0  0.7325559854507446  0.4816066324710846  0.6472293734550476  1.0000
  F   F3        1.0  0.7332777380943298  0.9796462059020996  0.1437780112028122  1.0000
  F   F4        1.0  0.23290680348873138  0.9827023148536682  0.6450668573379517  1.0000
