data_image0
_chemical_formula_structural       PdCeIrCe
_chemical_formula_sum              "Pd1 Ce2 Ir1"
_cell_length_a       3.494502825285149
_cell_length_b       3.4880930216852835
_cell_length_c       7.177446365356445
_cell_angle_alpha    90.14906455430352
_cell_angle_beta     90.0229724304663
_cell_angle_gamma    90.02439994064687

_space_group_name_H-M_alt    "P 1"
_space_group_IT_number       1

loop_
  _space_group_symop_operation_xyz
  'x, y, z'

loop_
  _atom_site_type_symbol
  _atom_site_label
  _atom_site_symmetry_multiplicity
  _atom_site_fract_x
  _atom_site_fract_y
  _atom_site_fract_z
  _atom_site_occupancy
  Pd  Pd1       1.0  0.4919818341732025  0.5742504596710205  0.5547376275062561  1.0000
  Ce  Ce1       1.0  0.9913185834884644  0.07468967139720915  0.8123399615287781  1.0000
  Ir  Ir1       1.0  0.4925030767917633  0.5748715400695801  0.05603918433189392  1.0000
  Ce  Ce2       1.0  0.9925909042358398  0.0750073790550232  0.2978908121585846  1.0000
