# generated using pymatgen
data_CeHfZr2Ti8Pb3
_symmetry_space_group_name_H-M   'P 1'
_cell_length_a   3.17227959
_cell_length_b   6.59815185
_cell_length_c   15.27573222
_cell_angle_alpha   94.26676286
_cell_angle_beta   89.96575822
_cell_angle_gamma   90.78302747
_symmetry_Int_Tables_number   1
_chemical_formula_structural   CeHfZr2Ti8Pb3
_chemical_formula_sum   'Ce1 Hf1 Zr2 Ti8 Pb3'
_cell_volume   318.82316469
_cell_formula_units_Z   1
loop_
 _symmetry_equiv_pos_site_id
 _symmetry_equiv_pos_as_xyz
  1  'x, y, z'
loop_
 _atom_site_type_symbol
 _atom_site_label
 _atom_site_symmetry_multiplicity
 _atom_site_fract_x
 _atom_site_fract_y
 _atom_site_fract_z
 _atom_site_occupancy
  Ce  Ce0  1  0.10075368  0.89883854  0.89546990  1
  Hf  Hf1  1  0.08417689  0.37512839  0.60065274  1
  Zr  Zr2  1  0.57481517  0.08914645  0.46519314  1
  Zr  Zr3  1  0.59914261  0.20731469  0.27405203  1
  Ti  Ti4  1  0.60334270  0.69119210  0.52928237  1
  Ti  Ti5  1  0.60610029  0.20046859  0.77185721  1
  Ti  Ti6  1  0.10940724  0.97160561  0.63821825  1
  Ti  Ti7  1  0.60395577  0.71025566  0.03837406  1
  Ti  Ti8  1  0.09738303  0.90819705  0.16477399  1
  Ti  Ti9  1  0.09850847  0.44520839  0.41068338  1
  Ti  Ti10  1  0.59861510  0.15724694  0.06701142  1
  Ti  Ti11  1  0.10423596  0.47105340  0.15658511  1
  Pb  Pb12  1  0.60327038  0.72900656  0.30846963  1
  Pb  Pb13  1  0.59576513  0.66849411  0.73045135  1
  Pb  Pb14  1  0.10179861  0.39148265  0.93294178  1
