# generated using pymatgen
data_CeNiBi
_symmetry_space_group_name_H-M   'P 1'
_cell_length_a   4.67012862
_cell_length_b   4.67271379
_cell_length_c   4.67608190
_cell_angle_alpha   60.05033649
_cell_angle_beta   60.03127256
_cell_angle_gamma   60.00849250
_symmetry_Int_Tables_number   1
_chemical_formula_structural   CeNiBi
_chemical_formula_sum   'Ce1 Ni1 Bi1'
_cell_volume   72.20388895
_cell_formula_units_Z   1
loop_
 _symmetry_equiv_pos_site_id
 _symmetry_equiv_pos_as_xyz
  1  'x, y, z'
loop_
 _atom_site_type_symbol
 _atom_site_label
 _atom_site_symmetry_multiplicity
 _atom_site_fract_x
 _atom_site_fract_y
 _atom_site_fract_z
 _atom_site_occupancy
  Ce  Ce0  1  0.61538469  0.18020699  0.58020271  1
  Ni  Ni1  1  0.36508992  0.93022354  0.32999662  1
  Bi  Bi2  1  0.11553791  0.68048007  0.07968574  1
