data_image0
_chemical_formula_structural       SeCeSeCe2SeCeSe5
_chemical_formula_sum              "Se8 Ce4"
_cell_length_a       7.260579258843952
_cell_length_b       5.854747438582927
_cell_length_c       7.735282897949219
_cell_angle_alpha    89.5514230067505
_cell_angle_beta     89.07057083102279
_cell_angle_gamma    89.32744061201079

_space_group_name_H-M_alt    "P 1"
_space_group_IT_number       1

loop_
  _space_group_symop_operation_xyz
  'x, y, z'

loop_
  _atom_site_type_symbol
  _atom_site_label
  _atom_site_symmetry_multiplicity
  _atom_site_fract_x
  _atom_site_fract_y
  _atom_site_fract_z
  _atom_site_occupancy
  Se  Se1       1.0  0.6571558713912964  0.5396708846092224  0.9592631459236146  1.0000
  Ce  Ce1       1.0  0.5332348942756653  0.5396114587783813  0.3198530077934265  1.0000
  Se  Se2       1.0  0.22792282700538635  0.786934196949005  0.11984322220087053  1.0000
  Ce  Ce2       1.0  0.03817885369062424  0.0415322370827198  0.416260838508606  1.0000
  Ce  Ce3       1.0  0.5293974280357361  0.04013513773679733  0.9148951768875123  1.0000
  Se  Se3       1.0  0.9098655581474304  0.04165910556912422  0.7770513892173768  1.0000
  Ce  Ce4       1.0  0.038204289972782135  0.541064977645874  0.8230783939361573  1.0000
  Se  Se4       1.0  0.9060376286506653  0.5402612686157227  0.46418258547782904  1.0000
  Se  Se5       1.0  0.34097689390182495  0.7903905510902404  0.6181010007858276  1.0000
  Se  Se6       1.0  0.3425876200199127  0.28956130146980286  0.6173701882362366  1.0000
  Se  Se7       1.0  0.22810088098049164  0.2936582565307617  0.11833875626325609  1.0000
  Se  Se8       1.0  0.6658592224121094  0.04103223606944084  0.2718345522880554  1.0000
