# generated using pymatgen
data_CeSm6Mg
_symmetry_space_group_name_H-M   'P 1'
_cell_length_a   5.75980260
_cell_length_b   7.15915612
_cell_length_c   7.16014279
_cell_angle_alpha   120.01268632
_cell_angle_beta   89.99286900
_cell_angle_gamma   89.99959323
_symmetry_Int_Tables_number   1
_chemical_formula_structural   CeSm6Mg
_chemical_formula_sum   'Ce1 Sm6 Mg1'
_cell_volume   255.66201667
_cell_formula_units_Z   1
loop_
 _symmetry_equiv_pos_site_id
 _symmetry_equiv_pos_as_xyz
  1  'x, y, z'
loop_
 _atom_site_type_symbol
 _atom_site_label
 _atom_site_symmetry_multiplicity
 _atom_site_fract_x
 _atom_site_fract_y
 _atom_site_fract_z
 _atom_site_occupancy
  Ce  Ce0  1  0.52465919  0.41339527  0.78697558  1
  Sm  Sm1  1  0.52479159  0.91274735  0.28774820  1
  Sm  Sm2  1  0.52436741  0.91247543  0.78499297  1
  Sm  Sm3  1  0.52459990  0.41561020  0.28801726  1
  Sm  Sm4  1  0.02436629  0.57513191  0.62503093  1
  Sm  Sm5  1  0.02454232  0.08939720  0.62485180  1
  Sm  Sm6  1  0.02486072  0.57528079  0.11062943  1
  Mg  Mg7  1  0.02480183  0.08011231  0.12026766  1
