# generated using pymatgen
data_CeTlAu2
_symmetry_space_group_name_H-M   'P 1'
_cell_length_a   5.09730291
_cell_length_b   5.09838961
_cell_length_c   5.09580795
_cell_angle_alpha   59.89185161
_cell_angle_beta   59.94051927
_cell_angle_gamma   59.91000556
_symmetry_Int_Tables_number   1
_chemical_formula_structural   CeTlAu2
_chemical_formula_sum   'Ce1 Tl1 Au2'
_cell_volume   93.45972714
_cell_formula_units_Z   1
loop_
 _symmetry_equiv_pos_site_id
 _symmetry_equiv_pos_as_xyz
  1  'x, y, z'
loop_
 _atom_site_type_symbol
 _atom_site_label
 _atom_site_symmetry_multiplicity
 _atom_site_fract_x
 _atom_site_fract_y
 _atom_site_fract_z
 _atom_site_occupancy
  Ce  Ce0  1  0.57960775  0.29657372  0.88822743  1
  Tl  Tl1  1  0.07964939  0.79672977  0.38828391  1
  Au  Au2  1  0.32941449  0.04643933  0.63833134  1
  Au  Au3  1  0.82974104  0.54716694  0.13835554  1
