# generated using pymatgen
data_CeZn3As2
_symmetry_space_group_name_H-M   'P 1'
_cell_length_a   4.33229093
_cell_length_b   4.33300195
_cell_length_c   7.45687779
_cell_angle_alpha   89.99837407
_cell_angle_beta   90.01088935
_cell_angle_gamma   59.99171001
_symmetry_Int_Tables_number   1
_chemical_formula_structural   CeZn3As2
_chemical_formula_sum   'Ce1 Zn3 As2'
_cell_volume   121.21541637
_cell_formula_units_Z   1
loop_
 _symmetry_equiv_pos_site_id
 _symmetry_equiv_pos_as_xyz
  1  'x, y, z'
loop_
 _atom_site_type_symbol
 _atom_site_label
 _atom_site_symmetry_multiplicity
 _atom_site_fract_x
 _atom_site_fract_y
 _atom_site_fract_z
 _atom_site_occupancy
  Ce  Ce0  1  0.21922808  0.96830261  0.03656734  1
  Zn  Zn1  1  0.55232735  0.30168655  0.76731043  1
  Zn  Zn2  1  0.55277947  0.30139747  0.38698025  1
  Zn  Zn3  1  0.88568450  0.63501046  0.79317499  1
  As  As4  1  0.88604532  0.63489125  0.25086209  1
  As  As5  1  0.21890755  0.96851315  0.60383825  1
