data_image0
_chemical_formula_structural       SeCoSeCoSeCoSe
_chemical_formula_sum              "Se4 Co3"
_cell_length_a       3.6177717321048886
_cell_length_b       5.226817193366873
_cell_length_c       6.063806533813477
_cell_angle_alpha    91.30752611867541
_cell_angle_beta     90.37467937672288
_cell_angle_gamma    89.91936528434198

_space_group_name_H-M_alt    "P 1"
_space_group_IT_number       1

loop_
  _space_group_symop_operation_xyz
  'x, y, z'

loop_
  _atom_site_type_symbol
  _atom_site_label
  _atom_site_symmetry_multiplicity
  _atom_site_fract_x
  _atom_site_fract_y
  _atom_site_fract_z
  _atom_site_occupancy
  Se  Se1       1.0  0.21750356256961823  0.9601110219955445  0.3994714319705963  1.0000
  Co  Co1       1.0  0.7179050445556641  0.7287738919258118  0.23108020424842834  1.0000
  Se  Se2       1.0  0.718995988368988  0.9758276939392091  0.9002277255058289  1.0000
  Co  Co2       1.0  0.21800106763839722  0.7227895259857179  0.7305102944374084  1.0000
  Se  Se3       1.0  0.7170400023460388  0.475109338760376  0.5609557628631592  1.0000
  Co  Co3       1.0  0.21786899864673615  0.22693915665149691  0.7304425835609436  1.0000
  Se  Se4       1.0  0.2171904593706131  0.4916932284832001  0.06512470543384552  1.0000
