# generated using pymatgen
data_Co
_symmetry_space_group_name_H-M   'P 1'
_cell_length_a   2.48985750
_cell_length_b   2.49000518
_cell_length_c   12.17884133
_cell_angle_alpha   89.99704132
_cell_angle_beta   90.00306115
_cell_angle_gamma   120.00603506
_symmetry_Int_Tables_number   1
_chemical_formula_structural   Co
_chemical_formula_sum   Co6
_cell_volume   65.38602425
_cell_formula_units_Z   6
loop_
 _symmetry_equiv_pos_site_id
 _symmetry_equiv_pos_as_xyz
  1  'x, y, z'
loop_
 _atom_site_type_symbol
 _atom_site_label
 _atom_site_symmetry_multiplicity
 _atom_site_fract_x
 _atom_site_fract_y
 _atom_site_fract_z
 _atom_site_occupancy
  Co  Co0  1  0.24322965  0.01621513  0.68620505  1
  Co  Co1  1  0.57573506  0.68135567  0.01958870  1
  Co  Co2  1  0.24154415  0.01368262  0.18626347  1
  Co  Co3  1  0.57542720  0.68218278  0.51969640  1
  Co  Co4  1  0.90975775  0.34857938  0.85265361  1
  Co  Co5  1  0.90796573  0.34691786  0.35318398  1
