data_image0
_chemical_formula_structural       OCo2OCoO2CoO4
_chemical_formula_sum              "O8 Co4"
_cell_length_a       5.617154770032389
_cell_length_b       5.554285305486939
_cell_length_c       5.6239399909973145
_cell_angle_alpha    60.419136522019635
_cell_angle_beta     59.047635680675356
_cell_angle_gamma    60.537866446527

_space_group_name_H-M_alt    "P 1"
_space_group_IT_number       1

loop_
  _space_group_symop_operation_xyz
  'x, y, z'

loop_
  _atom_site_type_symbol
  _atom_site_label
  _atom_site_symmetry_multiplicity
  _atom_site_fract_x
  _atom_site_fract_y
  _atom_site_fract_z
  _atom_site_occupancy
  O   O1        1.0  0.6133224368095398  0.8818037509918214  0.5952707529067993  1.0000
  Co  Co1       1.0  0.3632764518260956  0.663394033908844  0.8462328314781189  1.0000
  Co  Co2       1.0  0.8633257150650024  0.16440047323703766  0.8466883301734924  1.0000
  O   O2        1.0  0.11780514568090436  0.8908351063728333  0.09850304573774338  1.0000
  Co  Co3       1.0  0.8637590408325195  0.6642956137657167  0.3461986184120178  1.0000
  O   O3        1.0  0.5936755537986755  0.43356242775917053  0.08267954736948013  1.0000
  O   O4        1.0  0.6098382472991943  0.437339186668396  0.5946947336196899  1.0000
  Co  Co4       1.0  0.3632793724536896  0.6643931269645691  0.34587475657463074  1.0000
  O   O5        1.0  0.13244815170764915  0.8952000737190248  0.6105267405509949  1.0000
  O   O6        1.0  0.10037616640329361  0.4382144510746002  0.5739008188247681  1.0000
  O   O7        1.0  0.11297784000635144  0.4466063380241394  0.0958828553557396  1.0000
  O   O8        1.0  0.6266991496086121  0.8907639384269714  0.11904040724039078  1.0000
