# generated using pymatgen
data_CoSbPbS5
_symmetry_space_group_name_H-M   'P 1'
_cell_length_a   6.33532792
_cell_length_b   5.92709069
_cell_length_c   6.13935412
_cell_angle_alpha   92.40068729
_cell_angle_beta   75.50292589
_cell_angle_gamma   65.07798776
_symmetry_Int_Tables_number   1
_chemical_formula_structural   CoSbPbS5
_chemical_formula_sum   'Co1 Sb1 Pb1 S5'
_cell_volume   199.53815151
_cell_formula_units_Z   1
loop_
 _symmetry_equiv_pos_site_id
 _symmetry_equiv_pos_as_xyz
  1  'x, y, z'
loop_
 _atom_site_type_symbol
 _atom_site_label
 _atom_site_symmetry_multiplicity
 _atom_site_fract_x
 _atom_site_fract_y
 _atom_site_fract_z
 _atom_site_occupancy
  Co  Co0  1  0.02853713  0.44907717  0.73975626  1
  Sb  Sb1  1  0.46620652  0.70962532  0.43443517  1
  Pb  Pb2  1  0.55655061  0.16142064  0.90708978  1
  S  S3  1  0.01957986  0.51726903  0.09958856  1
  S  S4  1  0.03783945  0.78508444  0.60806821  1
  S  S5  1  0.62678663  0.57496450  0.76436815  1
  S  S6  1  0.38136079  0.16502308  0.48850579  1
  S  S7  1  0.01281097  0.18621890  -0.00333562  1
