# generated using pymatgen
data_CrS2
_symmetry_space_group_name_H-M   'P 1'
_cell_length_a   3.33286876
_cell_length_b   6.19300995
_cell_length_c   5.64027730
_cell_angle_alpha   89.42215287
_cell_angle_beta   90.01861654
_cell_angle_gamma   90.02533377
_symmetry_Int_Tables_number   1
_chemical_formula_structural   CrS2
_chemical_formula_sum   'Cr2 S4'
_cell_volume   116.41214591
_cell_formula_units_Z   2
loop_
 _symmetry_equiv_pos_site_id
 _symmetry_equiv_pos_as_xyz
  1  'x, y, z'
loop_
 _atom_site_type_symbol
 _atom_site_label
 _atom_site_symmetry_multiplicity
 _atom_site_fract_x
 _atom_site_fract_y
 _atom_site_fract_z
 _atom_site_occupancy
  Cr  Cr0  1  0.47448666  0.49391178  0.85600838  1
  Cr  Cr1  1  0.97473902  0.50702986  0.29885091  1
  S  S2  1  0.47483293  0.70281387  0.49222559  1
  S  S3  1  0.47428171  0.26416081  0.16894298  1
  S  S4  1  0.97463219  0.73681939  0.98631147  1
  S  S5  1  0.97471899  0.29801915  0.66288733  1
