# generated using pymatgen
data_Cs2InAgF8
_symmetry_space_group_name_H-M   'P 1'
_cell_length_a   5.92063413
_cell_length_b   6.54447886
_cell_length_c   6.30115729
_cell_angle_alpha   88.50074089
_cell_angle_beta   85.78881057
_cell_angle_gamma   88.71842205
_symmetry_Int_Tables_number   1
_chemical_formula_structural   Cs2InAgF8
_chemical_formula_sum   'Cs2 In1 Ag1 F8'
_cell_volume   243.36014945
_cell_formula_units_Z   1
loop_
 _symmetry_equiv_pos_site_id
 _symmetry_equiv_pos_as_xyz
  1  'x, y, z'
loop_
 _atom_site_type_symbol
 _atom_site_label
 _atom_site_symmetry_multiplicity
 _atom_site_fract_x
 _atom_site_fract_y
 _atom_site_fract_z
 _atom_site_occupancy
  Cs  Cs0  1  0.96434225  0.54342103  0.56094058  1
  Cs  Cs1  1  0.46417300  0.54408036  0.06073655  1
  In  In2  1  0.46409817  0.04355586  0.56104025  1
  Ag  Ag3  1  0.96420786  0.04360725  0.06100316  1
  F  F4  1  0.22940963  0.16899568  0.36299977  1
  F  F5  1  0.20710905  0.97054605  0.83912487  1
  F  F6  1  0.98092057  0.33150919  0.98456191  1
  F  F7  1  0.51871522  0.33130275  0.66310770  1
  F  F8  1  0.94734771  0.75563951  0.13758116  1
  F  F9  1  0.69888222  0.91807004  0.75883772  1
  F  F10  1  0.72135935  0.11664689  0.28284084  1
  F  F11  1  0.40959592  0.75586652  0.45883552  1
