data_image0
_chemical_formula_structural       Cl3KClCsClLiClCs
_chemical_formula_sum              "Cl6 K1 Cs2 Li1"
_cell_length_a       7.796774859919232
_cell_length_b       7.800367580612833
_cell_length_c       7.814760684967041
_cell_angle_alpha    120.40339526468435
_cell_angle_beta     120.28786872334588
_cell_angle_gamma    90.51285236799242

_space_group_name_H-M_alt    "P 1"
_space_group_IT_number       1

loop_
  _space_group_symop_operation_xyz
  'x, y, z'

loop_
  _atom_site_type_symbol
  _atom_site_label
  _atom_site_symmetry_multiplicity
  _atom_site_fract_x
  _atom_site_fract_y
  _atom_site_fract_z
  _atom_site_occupancy
  Cl  Cl1       1.0  0.8848708271980286  0.763395369052887  0.9423679113388062  1.0000
  Cl  Cl2       1.0  0.3483341336250305  0.2999134957790375  0.942265510559082  1.0000
  Cl  Cl3       1.0  0.3499628603458405  0.7645414471626283  0.40722957253456116  1.0000
  K   K1        1.0  0.6165695190429688  0.03242168948054314  0.9413408041000366  1.0000
  Cl  Cl4       1.0  0.8842299580574036  0.2996448278427124  0.9422111511230469  1.0000
  Cs  Cs1       1.0  0.3671974241733551  0.28241270780563354  0.44319289922714233  1.0000
  Cl  Cl5       1.0  0.8846198916435242  0.2996222674846649  0.4776567816734314  1.0000
  Li  Li1       1.0  0.11679442226886749  0.532057523727417  0.9423039555549622  1.0000
  Cl  Cl6       1.0  0.3471001088619232  0.7629017233848572  0.9417460560798645  1.0000
  Cs  Cs2       1.0  0.8674623370170593  0.7817781567573547  0.4429888427257538  1.0000
