data_image0
_chemical_formula_structural       F2Cs2MgTlFTlF4
_chemical_formula_sum              "F7 Cs2 Mg1 Tl2"
_cell_length_a       6.172942263159749
_cell_length_b       6.1750046325128585
_cell_length_c       8.111461639404297
_cell_angle_alpha    67.95576567497969
_cell_angle_beta     67.87122680345702
_cell_angle_gamma    60.44116525608225

_space_group_name_H-M_alt    "P 1"
_space_group_IT_number       1

loop_
  _space_group_symop_operation_xyz
  'x, y, z'

loop_
  _atom_site_type_symbol
  _atom_site_label
  _atom_site_symmetry_multiplicity
  _atom_site_fract_x
  _atom_site_fract_y
  _atom_site_fract_z
  _atom_site_occupancy
  F   F1        1.0  0.4768752157688141  0.5054026246070862  0.7758259773254395  1.0000
  F   F2        1.0  0.03021281398832798  0.5055639147758484  0.772649884223938  1.0000
  Cs  Cs1       1.0  0.5588245391845704  0.5883660912513733  0.0810715183615684  1.0000
  Cs  Cs2       1.0  0.19984398782253265  0.2305662930011749  0.1500706672668457  1.0000
  Mg  Mg1       1.0  0.38127821683883667  0.40942323207855225  0.6147345304489136  1.0000
  Tl  Tl1       1.0  0.7609689235687256  0.7899624705314636  0.47606930136680603  1.0000
  F   F3        1.0  0.2875448167324066  0.7623475193977356  0.4546983242034912  1.0000
  Tl  Tl2       1.0  0.0039919354021549225  0.031076138839125633  0.7493706345558167  1.0000
  F   F4        1.0  0.2868722677230835  0.31523460149765015  0.452171266078949  1.0000
  F   F5        1.0  0.7340658903121948  0.31276974081993103  0.45637035369873047  1.0000
  F   F6        1.0  0.8782094717025757  0.9107896685600282  0.11430869996547699  1.0000
  F   F7        1.0  0.4790363311767578  0.05833989381790161  0.7724317908287048  1.0000
