data_image0
_chemical_formula_structural       TeAgGeCsTe2CsTe2AgCs
_chemical_formula_sum              "Te5 Ag2 Ge1 Cs3"
_cell_length_a       4.671140577251227
_cell_length_b       8.017911395790126
_cell_length_c       12.16468620300293
_cell_angle_alpha    88.70768973643295
_cell_angle_beta     78.2833250571782
_cell_angle_gamma    89.75108308443104

_space_group_name_H-M_alt    "P 1"
_space_group_IT_number       1

loop_
  _space_group_symop_operation_xyz
  'x, y, z'

loop_
  _atom_site_type_symbol
  _atom_site_label
  _atom_site_symmetry_multiplicity
  _atom_site_fract_x
  _atom_site_fract_y
  _atom_site_fract_z
  _atom_site_occupancy
  Te  Te1       1.0  0.18756453692913055  0.7545722723007202  0.4997066557407379  1.0000
  Ag  Ag1       1.0  0.2773703634738922  0.5331902503967285  0.31131431460380554  1.0000
  Ge  Ge1       1.0  0.6953531503677368  0.5344167351722717  0.4886714220046997  1.0000
  Cs  Cs1       1.0  0.02251008339226246  0.5313559174537659  0.8370493650436401  1.0000
  Te  Te2       1.0  0.8329042196273804  0.5341376066207886  0.20530325174331665  1.0000
  Te  Te3       1.0  0.4354954659938812  0.21074743568897247  0.008330210112035275  1.0000
  Cs  Cs2       1.0  0.7943571209907532  0.035461340099573135  0.27921774983406067  1.0000
  Te  Te4       1.0  0.18396171927452087  0.32463890314102173  0.5119612812995911  1.0000
  Te  Te5       1.0  0.43041273951530457  0.8431237936019896  0.01585540734231472  1.0000
  Ag  Ag2       1.0  0.9585684537887573  0.029539378359913826  0.9632405638694763  1.0000
  Cs  Cs3       1.0  0.5964066982269287  0.02840929850935936  0.688818097114563  1.0000
