data_image0
_chemical_formula_structural       IPbCs2ICsI2
_chemical_formula_sum              "I4 Pb1 Cs3"
_cell_length_a       5.150102913081388
_cell_length_b       9.023962043056684
_cell_length_c       9.076080322265625
_cell_angle_alpha    79.5585491618186
_cell_angle_beta     107.75675278374558
_cell_angle_gamma    90.84736299349535

_space_group_name_H-M_alt    "P 1"
_space_group_IT_number       1

loop_
  _space_group_symop_operation_xyz
  'x, y, z'

loop_
  _atom_site_type_symbol
  _atom_site_label
  _atom_site_symmetry_multiplicity
  _atom_site_fract_x
  _atom_site_fract_y
  _atom_site_fract_z
  _atom_site_occupancy
  I   I1        1.0  0.6699884533882141  0.25813671946525574  0.06991875171661376  1.0000
  Pb  Pb1       1.0  0.5532360672950745  0.5965172648429872  0.835076093673706  1.0000
  Cs  Cs1       1.0  0.053894542157649994  0.09713137894868851  0.8382629156112671  1.0000
  Cs  Cs2       1.0  0.7957990765571594  0.849738895893097  0.324105829000473  1.0000
  I   I2        1.0  0.94622403383255  0.4921105802059174  0.6220417022705078  1.0000
  Cs  Cs3       1.0  0.3112086355686187  0.3448388874530793  0.35010862350463867  1.0000
  I   I3        1.0  0.15877495706081393  0.6976441144943237  0.04449599236249924  1.0000
  I   I4        1.0  0.4367363452911377  0.9371588826179504  0.6057350635528564  1.0000
