# generated using pymatgen
data_Cs3TeBrCl5
_symmetry_space_group_name_H-M   'P 1'
_cell_length_a   4.72144795
_cell_length_b   6.48925542
_cell_length_c   14.62832177
_cell_angle_alpha   96.10704364
_cell_angle_beta   92.47365606
_cell_angle_gamma   106.72559268
_symmetry_Int_Tables_number   1
_chemical_formula_structural   Cs3TeBrCl5
_chemical_formula_sum   'Cs3 Te1 Br1 Cl5'
_cell_volume   425.51250170
_cell_formula_units_Z   1
loop_
 _symmetry_equiv_pos_site_id
 _symmetry_equiv_pos_as_xyz
  1  'x, y, z'
loop_
 _atom_site_type_symbol
 _atom_site_label
 _atom_site_symmetry_multiplicity
 _atom_site_fract_x
 _atom_site_fract_y
 _atom_site_fract_z
 _atom_site_occupancy
  Cs  Cs0  1  0.64028280  0.32782859  0.76996251  1
  Cs  Cs1  1  0.04717699  0.17087302  0.32478485  1
  Cs  Cs2  1  0.33269247  0.76274187  0.55162607  1
  Te  Te3  1  0.39416714  0.90286946  -0.02300336  1
  Br  Br4  1  0.74183613  0.60552843  0.37531285  1
  Cl  Cl5  1  0.69986488  0.65337061  0.00220327  1
  Cl  Cl6  1  0.08836167  0.16278843  0.94279977  1
  Cl  Cl7  1  0.04923076  0.20107727  0.59232293  1
  Cl  Cl8  1  0.32032580  0.75827544  0.79743014  1
  Cl  Cl9  1  0.46950936  0.04843598  0.14307987  1
