data_image0
_chemical_formula_structural       Br2SBrCs2EuBrCs2
_chemical_formula_sum              "Br4 S1 Cs4 Eu1"
_cell_length_a       4.801586294821292
_cell_length_b       8.70620592604667
_cell_length_c       11.141327857971191
_cell_angle_alpha    96.08053804370783
_cell_angle_beta     102.11272763737435
_cell_angle_gamma    105.57059292218992

_space_group_name_H-M_alt    "P 1"
_space_group_IT_number       1

loop_
  _space_group_symop_operation_xyz
  'x, y, z'

loop_
  _atom_site_type_symbol
  _atom_site_label
  _atom_site_symmetry_multiplicity
  _atom_site_fract_x
  _atom_site_fract_y
  _atom_site_fract_z
  _atom_site_occupancy
  Br  Br1       1.0  0.05468565970659256  0.4192529320716858  0.01108071487396955  1.0000
  Br  Br2       1.0  0.3111885190010071  0.2836152911186218  0.6624106168746948  1.0000
  S   S1        1.0  0.6269170045852661  0.7511000633239746  0.8283811807632446  1.0000
  Br  Br3       1.0  0.8983863592147827  0.6247514486312866  0.4896863400936126  1.0000
  Cs  Cs1       1.0  0.17739222943782806  0.32980942726135254  0.34027478098869324  1.0000
  Cs  Cs2       1.0  0.7714245319366455  0.7214003801345825  0.1420650780200958  1.0000
  Eu  Eu1       1.0  0.9820410013198853  0.534343123435974  0.7515314221382141  1.0000
  Br  Br4       1.0  0.4770650863647461  0.021524321287870404  0.24953307211399076  1.0000
  Cs  Cs3       1.0  0.347423791885376  0.08505168557167053  0.9324762821197509  1.0000
  Cs  Cs4       1.0  0.5932441353797911  0.9420525431632994  0.5687631368637085  1.0000
