data_image0
_chemical_formula_structural       Cs3FLiBrCsHBr2
_chemical_formula_sum              "Cs4 F1 Li1 Br3 H1"
_cell_length_a       4.568680819429432
_cell_length_b       5.687674496327736
_cell_length_c       15.336246490478516
_cell_angle_alpha    86.094903344068
_cell_angle_beta     90.0592202357842
_cell_angle_gamma    113.42712680736717

_space_group_name_H-M_alt    "P 1"
_space_group_IT_number       1

loop_
  _space_group_symop_operation_xyz
  'x, y, z'

loop_
  _atom_site_type_symbol
  _atom_site_label
  _atom_site_symmetry_multiplicity
  _atom_site_fract_x
  _atom_site_fract_y
  _atom_site_fract_z
  _atom_site_occupancy
  Cs  Cs1       1.0  0.03892248496413231  0.7317383885383606  0.1469975709915161  1.0000
  Cs  Cs2       1.0  0.6413472890853882  0.95722097158432  0.5780854821205139  1.0000
  Cs  Cs3       1.0  0.38333943486213684  0.4205434918403625  0.4007793366909027  1.0000
  F   F1        1.0  0.965377926826477  0.5912058353424072  0.507694661617279  1.0000
  Li  Li1       1.0  0.9136778116226196  0.4923447668552398  0.6303789019584656  1.0000
  Br  Br1       1.0  0.36907094717025757  0.4009202420711517  0.021876433864235875  1.0000
  Cs  Cs4       1.0  0.7000002861022949  0.06868121773004532  0.889340043067932  1.0000
  H   H1        1.0  0.35636356472969055  0.3896605670452118  0.6163979172706604  1.0000
  Br  Br2       1.0  0.022911662235856056  0.7174237966537476  0.7631540298461913  1.0000
  Br  Br3       1.0  0.7035078406333923  0.055082835257053375  0.283699631690979  1.0000
