# generated using pymatgen
data_Cs4S6Br
_symmetry_space_group_name_H-M   'P 1'
_cell_length_a   6.96317784
_cell_length_b   6.71546283
_cell_length_c   9.39241795
_cell_angle_alpha   85.92826930
_cell_angle_beta   89.12180600
_cell_angle_gamma   91.96256748
_symmetry_Int_Tables_number   1
_chemical_formula_structural   Cs4S6Br
_chemical_formula_sum   'Cs4 S6 Br1'
_cell_volume   437.76348190
_cell_formula_units_Z   1
loop_
 _symmetry_equiv_pos_site_id
 _symmetry_equiv_pos_as_xyz
  1  'x, y, z'
loop_
 _atom_site_type_symbol
 _atom_site_label
 _atom_site_symmetry_multiplicity
 _atom_site_fract_x
 _atom_site_fract_y
 _atom_site_fract_z
 _atom_site_occupancy
  Cs  Cs0  1  0.44596275  0.62052104  0.85472878  1
  Cs  Cs1  1  0.61217384  0.48102478  0.27499719  1
  Cs  Cs2  1  0.94339624  0.15409213  0.83758359  1
  Cs  Cs3  1  0.09507293  0.93624100  0.27619830  1
  S  S4  1  0.10856421  0.45406706  0.12744397  1
  S  S5  1  0.04902657  0.42158303  0.49388607  1
  S  S6  1  0.01814808  0.66391622  0.63144783  1
  S  S7  1  0.95585494  0.62979836  -0.01564643  1
  S  S8  1  0.77416705  0.79785445  0.57097833  1
  S  S9  1  0.28930225  0.28322055  0.55792812  1
  Br  Br10  1  0.55294452  0.02168530  0.09091913  1
