data_image0
_chemical_formula_structural       BaInBaZnInBaCs
_chemical_formula_sum              "Ba3 In2 Zn1 Cs1"
_cell_length_a       5.961378523802593
_cell_length_b       5.920719731006489
_cell_length_c       9.620320320129395
_cell_angle_alpha    90.22556950469914
_cell_angle_beta     90.39685700138989
_cell_angle_gamma    121.5707423892921

_space_group_name_H-M_alt    "P 1"
_space_group_IT_number       1

loop_
  _space_group_symop_operation_xyz
  'x, y, z'

loop_
  _atom_site_type_symbol
  _atom_site_label
  _atom_site_symmetry_multiplicity
  _atom_site_fract_x
  _atom_site_fract_y
  _atom_site_fract_z
  _atom_site_occupancy
  Ba  Ba1       1.0  0.8810790181159973  0.4559415876865387  0.0003817348915617913  1.0000
  In  In1       1.0  0.546635091304779  0.789669930934906  0.15811382234096527  1.0000
  Ba  Ba2       1.0  0.2160116732120514  0.12337357550859451  0.2956036925315857  1.0000
  Zn  Zn1       1.0  0.5506126284599304  0.7911245226860046  0.43887007236480713  1.0000
  In  In2       1.0  0.5476114749908447  0.7900931239128113  0.7328652739524841  1.0000
  Ba  Ba3       1.0  0.883527934551239  0.45722904801368713  0.5390383005142212  1.0000
  Cs  Cs1       1.0  0.21366077661514282  0.1256103664636612  0.7926990985870361  1.0000
