data_image0
_chemical_formula_structural       FCeF2KF3Cs
_chemical_formula_sum              "F6 Ce1 K1 Cs1"
_cell_length_a       6.68535009264501
_cell_length_b       6.688384806090923
_cell_length_c       6.7177019119262695
_cell_angle_alpha    60.02043918778744
_cell_angle_beta     60.042084142622016
_cell_angle_gamma    59.80974243239332

_space_group_name_H-M_alt    "P 1"
_space_group_IT_number       1

loop_
  _space_group_symop_operation_xyz
  'x, y, z'

loop_
  _atom_site_type_symbol
  _atom_site_label
  _atom_site_symmetry_multiplicity
  _atom_site_fract_x
  _atom_site_fract_y
  _atom_site_fract_z
  _atom_site_occupancy
  F   F1        1.0  0.12528698146343234  0.21359503269195557  0.47357338666915894  1.0000
  Ce  Ce1       1.0  0.892327070236206  0.44778156280517584  0.7061183452606201  1.0000
  F   F2        1.0  0.6591320633888245  0.6811647415161133  0.47490015625953674  1.0000
  F   F3        1.0  0.1255408227443695  0.21302270889282227  0.9384749531745911  1.0000
  K   K1        1.0  0.39162155985832214  0.9455612897872925  0.20766384899616241  1.0000
  F   F4        1.0  0.6589640378952026  0.6801725625991821  0.9380080699920654  1.0000
  F   F5        1.0  0.12544502317905426  0.6788241863250732  0.4738584458827972  1.0000
  F   F6        1.0  0.6600081324577332  0.2127564400434494  0.9391607642173767  1.0000
  Cs  Cs1       1.0  0.14330868422985077  0.6958219408988954  0.9563984870910645  1.0000
