data_image0
_chemical_formula_structural       BrCsNaCsBr4NaBr
_chemical_formula_sum              "Br6 Cs2 Na2"
_cell_length_a       4.79299977509276
_cell_length_b       7.839572611426034
_cell_length_c       10.449511528015137
_cell_angle_alpha    84.64751113690193
_cell_angle_beta     90.19641825330928
_cell_angle_gamma    90.02429065834858

_space_group_name_H-M_alt    "P 1"
_space_group_IT_number       1

loop_
  _space_group_symop_operation_xyz
  'x, y, z'

loop_
  _atom_site_type_symbol
  _atom_site_label
  _atom_site_symmetry_multiplicity
  _atom_site_fract_x
  _atom_site_fract_y
  _atom_site_fract_z
  _atom_site_occupancy
  Br  Br1       1.0  0.15695428848266602  0.07950139790773392  0.6271448731422424  1.0000
  Cs  Cs1       1.0  0.15607883036136627  0.30130514502525324  0.09653143584728241  1.0000
  Na  Na1       1.0  0.6552621722221375  0.3123841881752014  0.5420995950698853  1.0000
  Cs  Cs2       1.0  0.6567195057868958  0.8642463088035582  0.854067027568817  1.0000
  Br  Br2       1.0  0.1572728157043457  0.7969228029251099  0.10405404865741728  1.0000
  Br  Br3       1.0  0.6562457084655762  0.08795595169067383  0.31960833072662354  1.0000
  Br  Br4       1.0  0.15577414631843567  0.46953311562538147  0.3936013281345367  1.0000
  Br  Br5       1.0  0.6571143269538879  0.36856627464294434  0.8461467623710631  1.0000
  Na  Na2       1.0  0.1543443202972412  0.854631781578064  0.40342950820922846  1.0000
  Br  Br6       1.0  0.6562404632568359  0.69916832447052  0.5540549755096436  1.0000
