data_image0
_chemical_formula_structural       F3PFCsPF4
_chemical_formula_sum              "F8 P2 Cs1"
_cell_length_a       4.793477944087241
_cell_length_b       6.614877602687828
_cell_length_c       6.837799072265625
_cell_angle_alpha    90.3533418717028
_cell_angle_beta     89.27002602924067
_cell_angle_gamma    90.05623544986933

_space_group_name_H-M_alt    "P 1"
_space_group_IT_number       1

loop_
  _space_group_symop_operation_xyz
  'x, y, z'

loop_
  _atom_site_type_symbol
  _atom_site_label
  _atom_site_symmetry_multiplicity
  _atom_site_fract_x
  _atom_site_fract_y
  _atom_site_fract_z
  _atom_site_occupancy
  F   F1        1.0  0.4195540249347687  0.9905129671096803  0.8082696199417114  1.0000
  F   F2        1.0  0.41820499300956726  0.6257595419883728  0.8103901743888855  1.0000
  F   F3        1.0  0.603517472743988  0.48584014177322393  0.31229642033576965  1.0000
  P   P1        1.0  0.5891398787498474  0.806854784488678  0.8106507658958435  1.0000
  F   F4        1.0  0.9377150535583496  0.3044885694980622  0.48870816826820374  1.0000
  Cs  Cs1       1.0  0.16985701024532318  0.8136186003684998  0.3065966069698334  1.0000
  P   P2        1.0  0.7753930687904358  0.3074236810207367  0.31024476885795593  1.0000
  F   F5        1.0  0.595579981803894  0.13595512509346008  0.308160662651062  1.0000
  F   F6        1.0  0.7579355239868164  0.8088454008102418  0.9829645156860352  1.0000
  F   F7        1.0  0.9480960965156555  0.3095818459987641  0.1359088122844696  1.0000
  F   F8        1.0  0.7685166001319885  0.8063113689422609  0.6415348052978516  1.0000
