data_image0
_chemical_formula_structural       Cl2Pd2Cl3CsClCs
_chemical_formula_sum              "Cl6 Pd2 Cs2"
_cell_length_a       5.048474450241371
_cell_length_b       7.614321184526921
_cell_length_c       7.673008918762207
_cell_angle_alpha    89.46164014096094
_cell_angle_beta     90.64760691385088
_cell_angle_gamma    90.16610588882787

_space_group_name_H-M_alt    "P 1"
_space_group_IT_number       1

loop_
  _space_group_symop_operation_xyz
  'x, y, z'

loop_
  _atom_site_type_symbol
  _atom_site_label
  _atom_site_symmetry_multiplicity
  _atom_site_fract_x
  _atom_site_fract_y
  _atom_site_fract_z
  _atom_site_occupancy
  Cl  Cl1       1.0  0.5624639987945557  0.30393227934837336  0.34211233258247375  1.0000
  Cl  Cl2       1.0  0.06221679970622063  0.513626992702484  0.5522283315658569  1.0000
  Pd  Pd1       1.0  0.06291796267032623  0.3052400946617126  0.3409736752510071  1.0000
  Pd  Pd2       1.0  0.05997917428612709  0.8030540943145752  0.8404011726379395  1.0000
  Cl  Cl3       1.0  0.5611188411712646  0.8035852313041686  0.8407983183860778  1.0000
  Cl  Cl4       1.0  0.06280817836523056  0.5924228429794312  0.050498612225055695  1.0000
  Cl  Cl5       1.0  0.05937499925494194  0.015516885556280611  0.6307852268218994  1.0000
  Cs  Cs1       1.0  0.5611708760261536  0.8035221099853515  0.3406898975372315  1.0000
  Cl  Cl6       1.0  0.061781544238328934  0.09419715404510497  0.13255855441093445  1.0000
  Cs  Cs2       1.0  0.5614299774169922  0.3035716414451599  0.8414613008499147  1.0000
