data_image0
_chemical_formula_structural       RbCl2CsCl4PrCl
_chemical_formula_sum              "Rb1 Cl7 Cs1 Pr1"
_cell_length_a       8.300821219098918
_cell_length_b       8.313156082173023
_cell_length_c       8.306764602661133
_cell_angle_alpha    59.768717366938034
_cell_angle_beta     59.74706089007466
_cell_angle_gamma    59.70928106098074

_space_group_name_H-M_alt    "P 1"
_space_group_IT_number       1

loop_
  _space_group_symop_operation_xyz
  'x, y, z'

loop_
  _atom_site_type_symbol
  _atom_site_label
  _atom_site_symmetry_multiplicity
  _atom_site_fract_x
  _atom_site_fract_y
  _atom_site_fract_z
  _atom_site_occupancy
  Rb  Rb1       1.0  0.2034180909395218  0.08173982799053191  0.3080597519874573  1.0000
  Cl  Cl1       1.0  0.47045195102691656  0.8142535090446471  0.5775413513183594  1.0000
  Cl  Cl2       1.0  0.9351526498794556  0.3496289849281311  0.0401436910033226  1.0000
  Cs  Cs1       1.0  0.45399260520935064  0.3321684300899505  0.5587610006332397  1.0000
  Cl  Cl3       1.0  0.9363445043563843  0.3494016230106354  0.5757220983505249  1.0000
  Cl  Cl4       1.0  0.9533449411392213  0.8312633037567138  0.057293299585580826  1.0000
  Cl  Cl5       1.0  0.4696004092693329  0.35061633586883545  0.04080204665660858  1.0000
  Cl  Cl6       1.0  0.4704393446445465  0.8139343857765198  0.04037167876958847  1.0000
  Pr  Pr1       1.0  0.7033730745315552  0.5824511647224426  0.8080703020095825  1.0000
  Cl  Cl7       1.0  0.9359375834465028  0.8147460222244262  0.5754385590553284  1.0000
