# generated using pymatgen
data_CsYErAg2BrO6
_symmetry_space_group_name_H-M   'P 1'
_cell_length_a   3.53804496
_cell_length_b   6.59118369
_cell_length_c   10.63069737
_cell_angle_alpha   116.84593863
_cell_angle_beta   92.75685277
_cell_angle_gamma   90.16768132
_symmetry_Int_Tables_number   1
_chemical_formula_structural   CsYErAg2BrO6
_chemical_formula_sum   'Cs1 Y1 Er1 Ag2 Br1 O6'
_cell_volume   220.84793947
_cell_formula_units_Z   1
loop_
 _symmetry_equiv_pos_site_id
 _symmetry_equiv_pos_as_xyz
  1  'x, y, z'
loop_
 _atom_site_type_symbol
 _atom_site_label
 _atom_site_symmetry_multiplicity
 _atom_site_fract_x
 _atom_site_fract_y
 _atom_site_fract_z
 _atom_site_occupancy
  Cs  Cs0  1  0.27546872  0.80840302  0.21073869  1
  Y  Y1  1  0.35122197  -0.01733163  0.90056255  1
  Er  Er2  1  0.80456321  0.93279032  0.60212572  1
  Ag  Ag3  1  0.83558002  0.48264855  0.87187038  1
  Ag  Ag4  1  0.30326509  0.42019355  0.61274339  1
  Br  Br5  1  0.61738951  0.35789168  0.30031127  1
  O  O6  1  0.84168153  0.14309035  0.83297456  1
  O  O7  1  0.31643734  0.76712966  0.66579480  1
  O  O8  1  0.41037961  0.30496432  0.13520484  1
  O  O9  1  0.85469466  0.83636493  0.96243449  1
  O  O10  1  0.29480585  0.07008077  0.53803844  1
  O  O11  1  0.83116995  0.62963157  0.37014564  1
