data_image0
_chemical_formula_structural       HgOCuOAuOAgO
_chemical_formula_sum              "Hg1 O4 Cu1 Au1 Ag1"
_cell_length_a       4.634155687589861
_cell_length_b       4.63822354348
_cell_length_c       5.526542663574219
_cell_angle_alpha    89.68631241515001
_cell_angle_beta     90.27491077885944
_cell_angle_gamma    96.96094165421648

_space_group_name_H-M_alt    "P 1"
_space_group_IT_number       1

loop_
  _space_group_symop_operation_xyz
  'x, y, z'

loop_
  _atom_site_type_symbol
  _atom_site_label
  _atom_site_symmetry_multiplicity
  _atom_site_fract_x
  _atom_site_fract_y
  _atom_site_fract_z
  _atom_site_occupancy
  Hg  Hg1       1.0  0.9043262600898743  0.2535383403301239  0.38510191440582275  1.0000
  O   O1        1.0  0.64625483751297  0.4987622797489166  0.1214455962181091  1.0000
  Cu  Cu1       1.0  0.40430933237075806  0.25466692447662354  0.8860296607017517  1.0000
  O   O2        1.0  0.1573774665594101  0.012388402596116066  0.11824715882539749  1.0000
  Au  Au1       1.0  0.9054459929466248  0.7552376985549927  0.8852649927139282  1.0000
  O   O3        1.0  0.6500961184501648  0.49505954980850225  0.651627779006958  1.0000
  Ag  Ag1       1.0  0.40510472655296326  0.7540865540504456  0.3849296271800995  1.0000
  O   O4        1.0  0.1629258096218109  0.009552981704473495  0.6477694511413574  1.0000
