# generated using pymatgen
data_CuH4O5
_symmetry_space_group_name_H-M   'P 1'
_cell_length_a   3.20903560
_cell_length_b   5.53229642
_cell_length_c   5.58651355
_cell_angle_alpha   93.14070415
_cell_angle_beta   92.78899692
_cell_angle_gamma   98.19954150
_symmetry_Int_Tables_number   1
_chemical_formula_structural   CuH4O5
_chemical_formula_sum   'Cu1 H4 O5'
_cell_volume   97.85778652
_cell_formula_units_Z   1
loop_
 _symmetry_equiv_pos_site_id
 _symmetry_equiv_pos_as_xyz
  1  'x, y, z'
loop_
 _atom_site_type_symbol
 _atom_site_label
 _atom_site_symmetry_multiplicity
 _atom_site_fract_x
 _atom_site_fract_y
 _atom_site_fract_z
 _atom_site_occupancy
  Cu  Cu0  1  0.88168576  0.47059326  0.85045233  1
  H  H1  1  0.67855158  0.66994633  0.20274154  1
  H  H2  1  0.53929530  0.82733821  0.86186419  1
  H  H3  1  0.54766832  0.21203595  0.49878258  1
  H  H4  1  0.86777162  0.41933094  0.38123328  1
  O  O5  1  0.20734785  0.20384507  0.91920560  1
  O  O6  1  -0.09222283  0.57369055  0.17667144  1
  O  O7  1  0.49419055  0.67807932  0.75692144  1
  O  O8  1  0.83012165  0.30622647  0.52811596  1
  O  O9  1  0.17733236  0.09495884  0.11567740  1
