# generated using pymatgen
data_CuPtO4
_symmetry_space_group_name_H-M   'P 1'
_cell_length_a   3.12979846
_cell_length_b   4.75012922
_cell_length_c   10.13890644
_cell_angle_alpha   74.89979254
_cell_angle_beta   81.11363576
_cell_angle_gamma   90.00114818
_symmetry_Int_Tables_number   1
_chemical_formula_structural   CuPtO4
_chemical_formula_sum   'Cu2 Pt2 O8'
_cell_volume   143.65499197
_cell_formula_units_Z   2
loop_
 _symmetry_equiv_pos_site_id
 _symmetry_equiv_pos_as_xyz
  1  'x, y, z'
loop_
 _atom_site_type_symbol
 _atom_site_label
 _atom_site_symmetry_multiplicity
 _atom_site_fract_x
 _atom_site_fract_y
 _atom_site_fract_z
 _atom_site_occupancy
  Cu  Cu0  1  0.07312915  0.00382979  0.31949841  1
  Cu  Cu1  1  0.44525591  0.97554030  0.57511564  1
  Pt  Pt2  1  0.83513712  0.38197711  0.79516649  1
  Pt  Pt3  1  0.21833351  0.75609380  0.02838774  1
  O  O4  1  0.77394739  -0.03469534  0.91728280  1
  O  O5  1  0.89283473  0.78238816  0.67988520  1
  O  O6  1  -0.00193542  0.16439271  0.46953293  1
  O  O7  1  0.16265560  0.02280513  0.14007544  1
  O  O8  1  0.66891238  0.53746011  0.12714500  1
  O  O9  1  0.53834487  0.83324255  0.38894293  1
  O  O10  1  0.38946344  0.29338852  0.68666079  1
  O  O11  1  0.27994541  0.47057936  0.90537743  1
