data_image0
_chemical_formula_structural       CuO4Te
_chemical_formula_sum              "Cu1 O4 Te1"
_cell_length_a       2.9728174896529778
_cell_length_b       4.808335880225131
_cell_length_c       4.808288097381592
_cell_angle_alpha    99.82211469489265
_cell_angle_beta     89.71221246882874
_cell_angle_gamma    90.35653838165587

_space_group_name_H-M_alt    "P 1"
_space_group_IT_number       1

loop_
  _space_group_symop_operation_xyz
  'x, y, z'

loop_
  _atom_site_type_symbol
  _atom_site_label
  _atom_site_symmetry_multiplicity
  _atom_site_fract_x
  _atom_site_fract_y
  _atom_site_fract_z
  _atom_site_occupancy
  Cu  Cu1       1.0  0.5978463292121887  0.3949744701385498  0.9148547649383545  1.0000
  O   O1        1.0  0.09866708517074586  0.5839096307754518  0.10749664157629016  1.0000
  O   O2        1.0  0.09829945862293245  0.20298682153224948  0.7192695736885071  1.0000
  O   O3        1.0  0.5982322692871094  0.7236206531524658  0.5889014005661011  1.0000
  O   O4        1.0  0.5988756418228149  0.06583026796579361  0.237919420003891  1.0000
  Te  Te1       1.0  0.09810227155685426  0.8950202465057374  0.41215670108795166  1.0000
