data_image0
_chemical_formula_structural       DyCuGeDyCu
_chemical_formula_sum              "Dy2 Cu2 Ge1"
_cell_length_a       4.064059769373327
_cell_length_b       3.632771855291969
_cell_length_c       6.973803520202637
_cell_angle_alpha    90.16413879221973
_cell_angle_beta     73.0562360321769
_cell_angle_gamma    90.18094788058073

_space_group_name_H-M_alt    "P 1"
_space_group_IT_number       1

loop_
  _space_group_symop_operation_xyz
  'x, y, z'

loop_
  _atom_site_type_symbol
  _atom_site_label
  _atom_site_symmetry_multiplicity
  _atom_site_fract_x
  _atom_site_fract_y
  _atom_site_fract_z
  _atom_site_occupancy
  Dy  Dy1       1.0  0.10543354600667952  0.244243398308754  0.18928998708724973  1.0000
  Cu  Cu1       1.0  0.6765730381011963  0.7430957555770875  0.04634979739785196  1.0000
  Ge  Ge1       1.0  0.4783239066600799  0.7420932650566102  0.4426831901073455  1.0000
  Dy  Dy2       1.0  0.8520381450653075  0.24001882970333102  0.6952921152114867  1.0000
  Cu  Cu2       1.0  0.280073344707489  0.7425446510314941  0.8405369520187377  1.0000
