data_image0
_chemical_formula_structural       DyRuAlRu4Dy3
_chemical_formula_sum              "Dy4 Ru5 Al1"
_cell_length_a       4.2203060930093
_cell_length_b       4.221748143454314
_cell_length_c       13.781932830810547
_cell_angle_alpha    97.78258577330836
_cell_angle_beta     80.50312311653231
_cell_angle_gamma    116.8570496866089

_space_group_name_H-M_alt    "P 1"
_space_group_IT_number       1

loop_
  _space_group_symop_operation_xyz
  'x, y, z'

loop_
  _atom_site_type_symbol
  _atom_site_label
  _atom_site_symmetry_multiplicity
  _atom_site_fract_x
  _atom_site_fract_y
  _atom_site_fract_z
  _atom_site_occupancy
  Dy  Dy1       1.0  0.2681336998939514  0.4344433844089508  0.3883424103260041  1.0000
  Ru  Ru1       1.0  0.5681620836257935  0.13269095122814178  0.4899000227451325  1.0000
  Al  Al1       1.0  0.6449350118637085  0.06115465611219406  0.26162922382354736  1.0000
  Ru  Ru2       1.0  0.4855264723300934  0.21629582345485687  0.7379832267761232  1.0000
  Ru  Ru3       1.0  0.9877444505691528  0.7169589996337891  0.2322921007871628  1.0000
  Ru  Ru4       1.0  0.1458819955587387  0.555901050567627  0.7535864710807801  1.0000
  Ru  Ru5       1.0  0.06644311547279358  0.6397926211357117  0.9978125095367433  1.0000
  Dy  Dy2       1.0  0.36389240622520447  0.343705952167511  0.10372438281774522  1.0000
  Dy  Dy3       1.0  0.7712157368659973  0.9316704273223877  0.8830581903457643  1.0000
  Dy  Dy4       1.0  0.8610934615135193  0.8405264019966125  0.6084980368614198  1.0000
