data_image0
_chemical_formula_structural       CuDySnDy2CuDySn2
_chemical_formula_sum              "Cu2 Dy4 Sn3"
_cell_length_a       4.298586846690406
_cell_length_b       4.314452957549901
_cell_length_c       14.24421501159668
_cell_angle_alpha    89.69209758549566
_cell_angle_beta     90.2502742898256
_cell_angle_gamma    119.93629120010833

_space_group_name_H-M_alt    "P 1"
_space_group_IT_number       1

loop_
  _space_group_symop_operation_xyz
  'x, y, z'

loop_
  _atom_site_type_symbol
  _atom_site_label
  _atom_site_symmetry_multiplicity
  _atom_site_fract_x
  _atom_site_fract_y
  _atom_site_fract_z
  _atom_site_occupancy
  Cu  Cu1       1.0  0.7096644639968872  0.5213663578033448  0.6568822264671326  1.0000
  Dy  Dy1       1.0  0.7133058905601501  0.5167128443717957  0.29559326171875  1.0000
  Sn  Sn1       1.0  0.37977832555770885  0.8517352342605592  0.4255724847316742  1.0000
  Dy  Dy2       1.0  0.3803913891315461  0.84805965423584  0.04913686215877533  1.0000
  Dy  Dy3       1.0  0.046603668481111554  0.18512882292270663  0.5556418895721436  1.0000
  Cu  Cu2       1.0  0.0431206189095974  0.18471598625183105  0.8887205719947815  1.0000
  Dy  Dy4       1.0  0.3771432638168335  0.85248202085495  0.7614347338676453  1.0000
  Sn  Sn2       1.0  0.7122288346290588  0.5176512598991394  0.9173697829246521  1.0000
  Sn  Sn3       1.0  0.046062685549259186  0.18021489679813385  0.17194555699825287  1.0000
