data_image0
_chemical_formula_structural       DyOClODy2OClDyO2
_chemical_formula_sum              "Dy4 O5 Cl2"
_cell_length_a       4.0391930885775365
_cell_length_b       6.10814433662021
_cell_length_c       8.111302375793457
_cell_angle_alpha    89.8131558509105
_cell_angle_beta     89.41081673048065
_cell_angle_gamma    89.08330902808987

_space_group_name_H-M_alt    "P 1"
_space_group_IT_number       1

loop_
  _space_group_symop_operation_xyz
  'x, y, z'

loop_
  _atom_site_type_symbol
  _atom_site_label
  _atom_site_symmetry_multiplicity
  _atom_site_fract_x
  _atom_site_fract_y
  _atom_site_fract_z
  _atom_site_occupancy
  Dy  Dy1       1.0  0.43640655279159546  0.640849232673645  0.23464736342430115  1.0000
  O   O1        1.0  0.9369996190071106  0.7872982025146484  0.23250269889831543  1.0000
  Cl  Cl1       1.0  0.4376176595687866  0.2723224461078644  0.43385931849479675  1.0000
  O   O2        1.0  0.43802803754806524  0.7736008167266845  0.9728162884712219  1.0000
  Dy  Dy2       1.0  0.9377596378326416  0.9449623823165894  0.9620413184165955  1.0000
  Dy  Dy3       1.0  0.9377179145812988  0.9431061148643493  0.5130100250244141  1.0000
  O   O3        1.0  0.9376444220542908  0.7377067208290099  0.7349058985710144  1.0000
  Cl  Cl2       1.0  0.4374929368495941  0.2772284746170044  0.03463410958647728  1.0000
  Dy  Dy4       1.0  0.43914344906806946  0.56512850522995  0.7337022423744202  1.0000
  O   O4        1.0  0.9332608580589294  0.23184232413768768  0.7359372973442078  1.0000
  O   O5        1.0  0.4373686909675598  0.7695004343986511  0.49794378876686096  1.0000
