# generated using pymatgen
data_Dy4Ni2Pb5
_symmetry_space_group_name_H-M   'P 1'
_cell_length_a   4.44549114
_cell_length_b   7.42097408
_cell_length_c   8.52564127
_cell_angle_alpha   90.08439460
_cell_angle_beta   90.00828682
_cell_angle_gamma   89.99765702
_symmetry_Int_Tables_number   1
_chemical_formula_structural   Dy4Ni2Pb5
_chemical_formula_sum   'Dy4 Ni2 Pb5'
_cell_volume   281.25952740
_cell_formula_units_Z   1
loop_
 _symmetry_equiv_pos_site_id
 _symmetry_equiv_pos_as_xyz
  1  'x, y, z'
loop_
 _atom_site_type_symbol
 _atom_site_label
 _atom_site_symmetry_multiplicity
 _atom_site_fract_x
 _atom_site_fract_y
 _atom_site_fract_z
 _atom_site_occupancy
  Dy  Dy0  1  0.48197351  0.12783014  0.87292490  1
  Dy  Dy1  1  0.98175728  0.51461891  0.79142108  1
  Dy  Dy2  1  0.98163392  0.16570824  0.46014974  1
  Dy  Dy3  1  0.98178528  0.67394414  0.36205149  1
  Ni  Ni4  1  0.98163496  0.86493938  0.04628068  1
  Ni  Ni5  1  0.48202034  0.83907367  0.53805055  1
  Pb  Pb6  1  0.98183842  0.29992305  0.11885441  1
  Pb  Pb7  1  0.98203763  0.90853269  0.72194498  1
  Pb  Pb8  1  0.48170848  0.97775464  0.23937141  1
  Pb  Pb9  1  0.48173497  0.44929798  0.54519484  1
  Pb  Pb10  1  0.48174872  0.63983924  0.02387915  1
