# generated using pymatgen
data_Er2CdIn
_symmetry_space_group_name_H-M   'P 1'
_cell_length_a   5.26749623
_cell_length_b   5.26743843
_cell_length_c   5.26388753
_cell_angle_alpha   59.93085028
_cell_angle_beta   59.92839065
_cell_angle_gamma   59.88280010
_symmetry_Int_Tables_number   1
_chemical_formula_structural   Er2CdIn
_chemical_formula_sum   'Er2 Cd1 In1'
_cell_volume   103.07353225
_cell_formula_units_Z   1
loop_
 _symmetry_equiv_pos_site_id
 _symmetry_equiv_pos_as_xyz
  1  'x, y, z'
loop_
 _atom_site_type_symbol
 _atom_site_label
 _atom_site_symmetry_multiplicity
 _atom_site_fract_x
 _atom_site_fract_y
 _atom_site_fract_z
 _atom_site_occupancy
  Er  Er0  1  0.27425145  0.45421573  0.74311785  1
  Er  Er1  1  0.77374862  0.95438684  0.24216722  1
  Cd  Cd2  1  0.02443053  0.20415717  0.49264366  1
  In  In3  1  0.52403964  0.70422092  0.99272957  1
