data_image0
_chemical_formula_structural       Ga2ErGaErGaErGa6ErGa4
_chemical_formula_sum              "Ga14 Er4"
_cell_length_a       5.769081152659364
_cell_length_b       6.1119418304038104
_cell_length_c       10.417518615722656
_cell_angle_alpha    89.8383182672922
_cell_angle_beta     104.70860833353306
_cell_angle_gamma    89.69184486958004

_space_group_name_H-M_alt    "P 1"
_space_group_IT_number       1

loop_
  _space_group_symop_operation_xyz
  'x, y, z'

loop_
  _atom_site_type_symbol
  _atom_site_label
  _atom_site_symmetry_multiplicity
  _atom_site_fract_x
  _atom_site_fract_y
  _atom_site_fract_z
  _atom_site_occupancy
  Ga  Ga1       1.0  0.3801923990249634  0.4184708595275879  0.7842527031898499  1.0000
  Ga  Ga2       1.0  0.5550642609596252  0.1952907592058182  0.37875354290008545  1.0000
  Er  Er1       1.0  0.8644046783447266  0.4173010289669037  0.6143403649330139  1.0000
  Ga  Ga3       1.0  0.059949275106191635  0.4274760782718659  0.3671520948410034  1.0000
  Er  Er2       1.0  0.6470775008201599  0.42138177156448364  0.09788119047880173  1.0000
  Ga  Ga4       1.0  0.719855546951294  0.7019128799438477  0.8226133584976196  1.0000
  Er  Er3       1.0  0.023126045241951942  0.9266199469566346  0.35314667224884033  1.0000
  Ga  Ga5       1.0  0.3315602242946625  0.6931118965148927  0.5879518389701843  1.0000
  Ga  Ga6       1.0  0.16808202862739563  0.2028191387653351  0.14645886421203613  1.0000
  Ga  Ga7       1.0  0.5553958415985107  0.6527227163314819  0.38057309389114385  1.0000
  Ga  Ga8       1.0  0.8081353902816772  0.9219988584518434  0.04576540365815165  1.0000
  Ga  Ga9       1.0  0.7199891805648804  0.1357661932706833  0.8221681118011475  1.0000
  Ga  Ga10      1.0  0.828362226486206  0.9189762473106384  0.5950810909271241  1.0000
  Er  Er4       1.0  0.2389141321182251  0.9179646968841553  0.8684924244880676  1.0000
  Ga  Ga11      1.0  0.1627209335565567  0.6399256587028503  0.1452250182628632  1.0000
  Ga  Ga12      1.0  0.3342122733592987  0.15173770487308502  0.5865631699562073  1.0000
  Ga  Ga13      1.0  0.07956603169441223  0.41669124364852905  0.9219202399253845  1.0000
  Ga  Ga14      1.0  0.5067391395568848  0.9194343686103821  0.18136505782604218  1.0000
