data_image0
_chemical_formula_structural       IErIErI4PbErI4
_chemical_formula_sum              "I10 Er3 Pb1"
_cell_length_a       4.367465945259782
_cell_length_b       7.691333847579624
_cell_length_c       18.285520553588867
_cell_angle_alpha    98.99321656707284
_cell_angle_beta     90.1363672310036
_cell_angle_gamma    90.20286595813207

_space_group_name_H-M_alt    "P 1"
_space_group_IT_number       1

loop_
  _space_group_symop_operation_xyz
  'x, y, z'

loop_
  _atom_site_type_symbol
  _atom_site_label
  _atom_site_symmetry_multiplicity
  _atom_site_fract_x
  _atom_site_fract_y
  _atom_site_fract_z
  _atom_site_occupancy
  I   I1        1.0  0.8722988367080688  0.8595141172409058  0.8861759305000305  1.0000
  Er  Er1       1.0  0.36880236864089966  0.7830172181129456  0.1851218044757843  1.0000
  I   I2        1.0  0.369187593460083  0.240487203001976  0.49768784642219543  1.0000
  Er  Er2       1.0  0.8742014169692993  0.20080140233039856  0.9809173345565796  1.0000
  I   I3        1.0  0.8697288632392883  0.5824655294418335  0.08919406682252884  1.0000
  I   I4        1.0  0.3683041036128998  0.48831307888031006  0.28538036346435547  1.0000
  I   I5        1.0  0.37274059653282166  0.9480236768722533  0.696048378944397  1.0000
  I   I6        1.0  0.8723626732826233  0.4604995548725128  0.6932516098022461  1.0000
  Pb  Pb1       1.0  0.866121768951416  0.3575628995895386  0.39195021986961365  1.0000
  Er  Er3       1.0  0.3707583248615265  0.6010515689849852  0.606413722038269  1.0000
  I   I7        1.0  0.8699243664741516  0.97077077627182  0.28387561440467834  1.0000
  I   I8        1.0  0.37261369824409485  0.08588790893554688  0.08769527822732925  1.0000
  I   I9        1.0  0.8682202100753784  0.7124249339103699  0.5024867057800293  1.0000
  I   I10       1.0  0.37252116203308105  0.34850165247917175  0.895298957824707  1.0000
