data_image0
_chemical_formula_structural       Er3GaCuErCuErGa3CuGaCu
_chemical_formula_sum              "Er5 Ga5 Cu4"
_cell_length_a       4.074048989305784
_cell_length_b       6.910226518062231
_cell_length_c       9.714803695678711
_cell_angle_alpha    90.54198491625594
_cell_angle_beta     102.13142943688412
_cell_angle_gamma    90.04768404611313

_space_group_name_H-M_alt    "P 1"
_space_group_IT_number       1

loop_
  _space_group_symop_operation_xyz
  'x, y, z'

loop_
  _atom_site_type_symbol
  _atom_site_label
  _atom_site_symmetry_multiplicity
  _atom_site_fract_x
  _atom_site_fract_y
  _atom_site_fract_z
  _atom_site_occupancy
  Er  Er1       1.0  0.07844831049442291  0.33105537295341486  0.47320458292961126  1.0000
  Er  Er2       1.0  0.945303976535797  0.6904301643371582  0.1991666555404663  1.0000
  Er  Er3       1.0  0.8278045058250426  0.3445381820201874  0.9782981276512147  1.0000
  Ga  Ga1       1.0  0.6781693696975708  0.5138499736785889  0.6760410070419312  1.0000
  Cu  Cu1       1.0  0.3781400620937347  0.024227719753980637  0.07044675201177597  1.0000
  Er  Er4       1.0  0.12640109658241272  0.8230059742927551  0.5693928003311157  1.0000
  Cu  Cu2       1.0  0.25878041982650757  0.548791766166687  0.83819180727005  1.0000
  Er  Er5       1.0  0.7808814644813536  0.8447263240814209  0.881956458091736  1.0000
  Ga  Ga2       1.0  0.6579228043556213  0.1228371188044548  0.6372244954109192  1.0000
  Ga  Ga3       1.0  0.5442631244659424  0.6229015588760376  0.4011645019054413  1.0000
  Ga  Ga4       1.0  0.954138159751892  0.10076351463794708  0.22040101885795596  1.0000
  Cu  Cu3       1.0  0.4550487399101257  0.351420134305954  0.22437261044979098  1.0000
  Ga  Ga5       1.0  0.24041439592838285  0.1580289751291275  0.8012914061546326  1.0000
  Cu  Cu4       1.0  0.5260987877845764  0.995206356048584  0.36568427085876465  1.0000
