data_image0
_chemical_formula_structural       Er2MgGaEr2SiEr2
_chemical_formula_sum              "Er6 Mg1 Ga1 Si1"
_cell_length_a       4.77128803471366
_cell_length_b       4.76769676679108
_cell_length_c       11.751709938049316
_cell_angle_alpha    114.12983146486728
_cell_angle_beta     101.5929304156841
_cell_angle_gamma    89.99342494179164

_space_group_name_H-M_alt    "P 1"
_space_group_IT_number       1

loop_
  _space_group_symop_operation_xyz
  'x, y, z'

loop_
  _atom_site_type_symbol
  _atom_site_label
  _atom_site_symmetry_multiplicity
  _atom_site_fract_x
  _atom_site_fract_y
  _atom_site_fract_z
  _atom_site_occupancy
  Er  Er1       1.0  0.8260538578033447  0.7968328595161438  0.6677836179733276  1.0000
  Er  Er2       1.0  0.9997825622558594  0.1322259157896042  0.0032237085979431868  1.0000
  Mg  Mg1       1.0  0.10482924431562424  0.8467819094657898  0.21680611371994019  1.0000
  Ga  Ga1       1.0  0.6058423519134521  0.34618911147117615  0.2172396034002304  1.0000
  Er  Er3       1.0  0.3270806074142456  0.30178070068359375  0.672202467918396  1.0000
  Er  Er4       1.0  0.5016778111457825  0.6340032815933228  0.003977482207119465  1.0000
  Si  Si1       1.0  0.41167503595352173  0.9631408452987671  0.8331787586212158  1.0000
  Er  Er5       1.0  0.7044805288314819  0.04966435953974724  0.41959330439567566  1.0000
  Er  Er6       1.0  0.20658637583255768  0.5561849474906921  0.4263386130332947  1.0000
