data_image0
_chemical_formula_structural       ErInPtErPtInPtErPt3In
_chemical_formula_sum              "Er3 In3 Pt6"
_cell_length_a       4.418007192079755
_cell_length_b       5.939582132690264
_cell_length_c       9.116626739501953
_cell_angle_alpha    77.1950227958447
_cell_angle_beta     90.08674589962182
_cell_angle_gamma    90.02619627908899

_space_group_name_H-M_alt    "P 1"
_space_group_IT_number       1

loop_
  _space_group_symop_operation_xyz
  'x, y, z'

loop_
  _atom_site_type_symbol
  _atom_site_label
  _atom_site_symmetry_multiplicity
  _atom_site_fract_x
  _atom_site_fract_y
  _atom_site_fract_z
  _atom_site_occupancy
  Er  Er1       1.0  0.30458948016166687  0.8034926056861876  0.3806102573871613  1.0000
  In  In1       1.0  0.8009834885597229  0.8031644225120544  0.8832935690879822  1.0000
  Pt  Pt1       1.0  0.7976920008659363  0.6383856534957886  0.2195488065481186  1.0000
  Er  Er2       1.0  0.3004998564720154  0.1388823240995407  0.7151477932929993  1.0000
  Pt  Pt2       1.0  0.8024643063545227  0.9747062325477599  0.5491286516189575  1.0000
  In  In2       1.0  0.8024489879608154  0.47079336643218994  0.5475804805755615  1.0000
  Pt  Pt3       1.0  0.30457350611686707  0.9680729508399963  0.04663006216287615  1.0000
  Er  Er3       1.0  0.3021638095378876  0.46977514028549194  0.04940137267112732  1.0000
  Pt  Pt4       1.0  0.30188387632369995  0.6380313038825989  0.7138006091117859  1.0000
  Pt  Pt5       1.0  0.8008577823638916  0.3068374097347259  0.8823471069335938  1.0000
  Pt  Pt6       1.0  0.3021901249885559  0.30330112576484675  0.3852056860923767  1.0000
  In  In3       1.0  0.8029385209083557  0.137571319937706  0.21296593546867368  1.0000
