# generated using pymatgen
data_ErLu2In
_symmetry_space_group_name_H-M   'P 1'
_cell_length_a   4.77066196
_cell_length_b   4.76263684
_cell_length_c   4.76575851
_cell_angle_alpha   90.06547187
_cell_angle_beta   89.94373129
_cell_angle_gamma   90.09597288
_symmetry_Int_Tables_number   1
_chemical_formula_structural   ErLu2In
_chemical_formula_sum   'Er1 Lu2 In1'
_cell_volume   108.28219289
_cell_formula_units_Z   1
loop_
 _symmetry_equiv_pos_site_id
 _symmetry_equiv_pos_as_xyz
  1  'x, y, z'
loop_
 _atom_site_type_symbol
 _atom_site_label
 _atom_site_symmetry_multiplicity
 _atom_site_fract_x
 _atom_site_fract_y
 _atom_site_fract_z
 _atom_site_occupancy
  Er  Er0  1  0.93799817  0.04995433  0.82798828  1
  Lu  Lu1  1  0.43866097  0.55031408  0.82831647  1
  Lu  Lu2  1  0.43815442  0.05034508  0.32790786  1
  In  In3  1  0.93847773  0.55007337  0.32807751  1
