data_image0
_chemical_formula_structural       ErTl2S
_chemical_formula_sum              "Er1 Tl2 S1"
_cell_length_a       4.103572242745668
_cell_length_b       4.097006476457338
_cell_length_c       8.71927547454834
_cell_angle_alpha    75.63761713741847
_cell_angle_beta     75.71677925084589
_cell_angle_gamma    59.080482730076184

_space_group_name_H-M_alt    "P 1"
_space_group_IT_number       1

loop_
  _space_group_symop_operation_xyz
  'x, y, z'

loop_
  _atom_site_type_symbol
  _atom_site_label
  _atom_site_symmetry_multiplicity
  _atom_site_fract_x
  _atom_site_fract_y
  _atom_site_fract_z
  _atom_site_occupancy
  Er  Er1       1.0  0.2672211527824402  0.18180862069129944  0.8490418195724487  1.0000
  Tl  Tl1       1.0  0.5134249329566956  0.4290417432785034  0.10982299596071245  1.0000
  Tl  Tl2       1.0  0.7403648495674132  0.6564720273017883  0.4331112802028656  1.0000
  S   S1        1.0  0.9823455810546874  0.899275541305542  0.7024084329605103  1.0000
