data_image0
_chemical_formula_structural       F2EuFEu2F5
_chemical_formula_sum              "F8 Eu3"
_cell_length_a       3.8745319651825474
_cell_length_b       3.878898993102673
_cell_length_c       10.043869018554688
_cell_angle_alpha    89.88714045575452
_cell_angle_beta     90.08742892505056
_cell_angle_gamma    90.13904468704617

_space_group_name_H-M_alt    "P 1"
_space_group_IT_number       1

loop_
  _space_group_symop_operation_xyz
  'x, y, z'

loop_
  _atom_site_type_symbol
  _atom_site_label
  _atom_site_symmetry_multiplicity
  _atom_site_fract_x
  _atom_site_fract_y
  _atom_site_fract_z
  _atom_site_occupancy
  F   F1        1.0  0.5706097483634949  0.7006941437721254  0.3658386170864105  1.0000
  F   F2        1.0  0.07176473736763  0.20183378458023074  0.36570215225219727  1.0000
  Eu  Eu1       1.0  0.07150712609291077  0.698550820350647  0.1893445998430252  1.0000
  F   F3        1.0  0.5708991289138794  0.2036305069923401  0.5548391342163086  1.0000
  Eu  Eu2       1.0  0.0692564845085144  0.7036380767822267  0.5430610775947571  1.0000
  Eu  Eu3       1.0  0.570198655128479  0.20118224620819095  0.8655250668525696  1.0000
  F   F4        1.0  0.5707018375396729  0.19904623925685883  0.1780490130186081  1.0000
  F   F5        1.0  0.07044464349746704  0.20430602133274078  0.7303204536437988  1.0000
  F   F6        1.0  0.0703381821513176  0.19797518849372864  0.0038686594925820823  1.0000
  F   F7        1.0  0.5719925165176392  0.7041332125663758  0.7306115031242371  1.0000
  F   F8        1.0  0.5686433911323547  0.6997981667518616  0.0009731054306030273  1.0000
