# generated using pymatgen
data_EuAuO3
_symmetry_space_group_name_H-M   'P 1'
_cell_length_a   4.11646941
_cell_length_b   4.11169983
_cell_length_c   4.10954949
_cell_angle_alpha   90.10690353
_cell_angle_beta   89.80110585
_cell_angle_gamma   89.67820481
_symmetry_Int_Tables_number   1
_chemical_formula_structural   EuAuO3
_chemical_formula_sum   'Eu1 Au1 O3'
_cell_volume   69.55530692
_cell_formula_units_Z   1
loop_
 _symmetry_equiv_pos_site_id
 _symmetry_equiv_pos_as_xyz
  1  'x, y, z'
loop_
 _atom_site_type_symbol
 _atom_site_label
 _atom_site_symmetry_multiplicity
 _atom_site_fract_x
 _atom_site_fract_y
 _atom_site_fract_z
 _atom_site_occupancy
  Eu  Eu0  1  0.16872193  0.48304915  0.24629242  1
  Au  Au1  1  0.66884588  0.98298123  0.74612284  1
  O  O2  1  0.66889941  0.48296472  0.74552976  1
  O  O3  1  0.16890996  0.98302497  0.74527887  1
  O  O4  1  0.66869312  0.98259054  0.24603850  1
