data_image0
_chemical_formula_structural       HOFeO2HOHO3HFe2OFe
_chemical_formula_sum              "H4 O8 Fe4"
_cell_length_a       5.070693391780765
_cell_length_b       5.059441891846138
_cell_length_c       6.4498372077941895
_cell_angle_alpha    98.21404219767602
_cell_angle_beta     81.99584754076668
_cell_angle_gamma    74.27480880877029

_space_group_name_H-M_alt    "P 1"
_space_group_IT_number       1

loop_
  _space_group_symop_operation_xyz
  'x, y, z'

loop_
  _atom_site_type_symbol
  _atom_site_label
  _atom_site_symmetry_multiplicity
  _atom_site_fract_x
  _atom_site_fract_y
  _atom_site_fract_z
  _atom_site_occupancy
  H   H1        1.0  0.941997230052948  0.4595404267311096  0.577387273311615  1.0000
  O   O1        1.0  0.3229874074459076  0.904917299747467  0.6951301097869873  1.0000
  Fe  Fe1       1.0  0.9534812569618225  0.7732637524604797  0.19347119331359866  1.0000
  O   O2        1.0  0.8220181465148926  0.3995753824710846  0.6872765421867371  1.0000
  O   O3        1.0  0.22286328673362732  0.009725618176162243  0.1315019130706787  1.0000
  H   H2        1.0  0.4516200125217438  0.973783016204834  0.5900104641914368  1.0000
  O   O4        1.0  0.7254518866539001  0.5081786513328552  0.12803328037261963  1.0000
  H   H3        1.0  0.21818424761295319  0.7022421360015869  0.5104119181632996  1.0000
  O   O5        1.0  0.7605910897254943  0.9713683724403381  0.9749440550804139  1.0000
  O   O6        1.0  0.1552799344062805  0.5734213590621948  0.4038058519363404  1.0000
  O   O7        1.0  0.6482796669006348  0.07003394514322281  0.40976801514625555  1.0000
  H   H4        1.0  0.7234320044517517  0.19804653525352478  0.506019115447998  1.0000
  Fe  Fe2       1.0  0.027235239744186412  0.2059517055749893  0.9017241001129152  1.0000
  Fe  Fe3       1.0  0.4573635160923004  0.27472272515296936  0.1868017911911011  1.0000
  O   O8        1.0  0.2609771192073822  0.47274771332740784  0.9704705476760865  1.0000
  Fe  Fe4       1.0  0.5288891792297363  0.7037030458450317  0.9004139304161073  1.0000
