# generated using pymatgen
data_GaAg2PbS4Cl
_symmetry_space_group_name_H-M   'P 1'
_cell_length_a   6.11135836
_cell_length_b   6.13806341
_cell_length_c   5.84634606
_cell_angle_alpha   81.35158856
_cell_angle_beta   81.02908157
_cell_angle_gamma   80.18761417
_symmetry_Int_Tables_number   1
_chemical_formula_structural   GaAg2PbS4Cl
_chemical_formula_sum   'Ga1 Ag2 Pb1 S4 Cl1'
_cell_volume   211.72232736
_cell_formula_units_Z   1
loop_
 _symmetry_equiv_pos_site_id
 _symmetry_equiv_pos_as_xyz
  1  'x, y, z'
loop_
 _atom_site_type_symbol
 _atom_site_label
 _atom_site_symmetry_multiplicity
 _atom_site_fract_x
 _atom_site_fract_y
 _atom_site_fract_z
 _atom_site_occupancy
  Ga  Ga0  1  0.35313018  0.20148697  0.63635909  1
  Ag  Ag1  1  0.24906285  0.61078727  0.03538028  1
  Ag  Ag2  1  0.75004679  0.10056337  0.03530771  1
  Pb  Pb3  1  0.76166705  0.61002730  0.63424024  1
  S  S4  1  0.72640594  0.08308160  0.60395519  1
  S  S5  1  0.24121947  0.57404794  0.60572819  1
  S  S6  1  0.34270592  0.20410790  0.20530445  1
  S  S7  1  0.17658995  0.03394270  0.00514184  1
  Cl  Cl8  1  0.76558274  0.62223831  0.15136173  1
