data_image0
_chemical_formula_structural       Gd2Sb
_chemical_formula_sum              "Gd2 Sb1"
_cell_length_a       5.175691821990997
_cell_length_b       5.185936423346201
_cell_length_c       5.180421829223633
_cell_angle_alpha    60.211046792465424
_cell_angle_beta     60.26108238535838
_cell_angle_gamma    60.22307014348418

_space_group_name_H-M_alt    "P 1"
_space_group_IT_number       1

loop_
  _space_group_symop_operation_xyz
  'x, y, z'

loop_
  _atom_site_type_symbol
  _atom_site_label
  _atom_site_symmetry_multiplicity
  _atom_site_fract_x
  _atom_site_fract_y
  _atom_site_fract_z
  _atom_site_occupancy
  Gd  Gd1       1.0  0.3693179786205292  0.9408755302429199  0.2950877547264099  1.0000
  Gd  Gd2       1.0  0.8684458136558533  0.4394009113311768  0.7955757379531861  1.0000
  Sb  Sb1       1.0  0.12033171951770778  0.6928853392601014  0.04303142428398132  1.0000
