data_image0
_chemical_formula_structural       Gd2Hg2
_chemical_formula_sum              "Gd2 Hg2"
_cell_length_a       5.305536083822284
_cell_length_b       5.307490720969754
_cell_length_c       5.310054779052734
_cell_angle_alpha    59.98992092179173
_cell_angle_beta     59.962150584166935
_cell_angle_gamma    59.924839594050034

_space_group_name_H-M_alt    "P 1"
_space_group_IT_number       1

loop_
  _space_group_symop_operation_xyz
  'x, y, z'

loop_
  _atom_site_type_symbol
  _atom_site_label
  _atom_site_symmetry_multiplicity
  _atom_site_fract_x
  _atom_site_fract_y
  _atom_site_fract_z
  _atom_site_occupancy
  Gd  Gd1       1.0  0.661110520362854  0.7556767463684082  0.37657231092453003  1.0000
  Gd  Gd2       1.0  0.16146326065063477  0.2562137544155121  0.8764109015464783  1.0000
  Hg  Hg1       1.0  0.4104435443878174  0.5063488483428955  0.1250898689031601  1.0000
  Hg  Hg2       1.0  0.9104419350624084  0.006253378000110388  0.6255961656570433  1.0000
