data_image0
_chemical_formula_structural       HTeGd
_chemical_formula_sum              "H1 Te1 Gd1"
_cell_length_a       4.0857516472358455
_cell_length_b       4.084544660958513
_cell_length_c       4.361009120941162
_cell_angle_alpha    90.00192178763447
_cell_angle_beta     89.95858423999846
_cell_angle_gamma    60.35302766461323

_space_group_name_H-M_alt    "P 1"
_space_group_IT_number       1

loop_
  _space_group_symop_operation_xyz
  'x, y, z'

loop_
  _atom_site_type_symbol
  _atom_site_label
  _atom_site_symmetry_multiplicity
  _atom_site_fract_x
  _atom_site_fract_y
  _atom_site_fract_z
  _atom_site_occupancy
  H   H1        1.0  0.22550925612449646  0.23488949239253998  0.9138394594192505  1.0000
  Te  Te1       1.0  0.5594671368598938  0.571060061454773  0.41379860043525696  1.0000
  Gd  Gd1       1.0  0.8913901448249817  0.9036597609519958  0.9133493900299072  1.0000
