# generated using pymatgen
data_Hf2AlCuC2
_symmetry_space_group_name_H-M   'P 1'
_cell_length_a   3.27053924
_cell_length_b   3.27036760
_cell_length_c   7.36343329
_cell_angle_alpha   90.00047295
_cell_angle_beta   90.01654706
_cell_angle_gamma   89.99988171
_symmetry_Int_Tables_number   1
_chemical_formula_structural   Hf2AlCuC2
_chemical_formula_sum   'Hf2 Al1 Cu1 C2'
_cell_volume   78.75828921
_cell_formula_units_Z   1
loop_
 _symmetry_equiv_pos_site_id
 _symmetry_equiv_pos_as_xyz
  1  'x, y, z'
loop_
 _atom_site_type_symbol
 _atom_site_label
 _atom_site_symmetry_multiplicity
 _atom_site_fract_x
 _atom_site_fract_y
 _atom_site_fract_z
 _atom_site_occupancy
  Hf  Hf0  1  0.07785564  0.89014033  0.09722456  1
  Hf  Hf1  1  0.57748666  0.39015636  0.79466836  1
  Al  Al2  1  0.57828381  0.39026571  0.37547697  1
  Cu  Cu3  1  0.07834788  0.89047644  0.52840348  1
  C  C4  1  0.07744306  0.89013600  0.80015398  1
  C  C5  1  0.57788113  0.39013976  0.10293883  1
