# generated using pymatgen
data_Hf3AlZn
_symmetry_space_group_name_H-M   'P 1'
_cell_length_a   3.21467714
_cell_length_b   3.21462189
_cell_length_c   9.66159576
_cell_angle_alpha   99.54425764
_cell_angle_beta   99.55949140
_cell_angle_gamma   90.01127844
_symmetry_Int_Tables_number   1
_chemical_formula_structural   Hf3AlZn
_chemical_formula_sum   'Hf3 Al1 Zn1'
_cell_volume   97.05387035
_cell_formula_units_Z   1
loop_
 _symmetry_equiv_pos_site_id
 _symmetry_equiv_pos_as_xyz
  1  'x, y, z'
loop_
 _atom_site_type_symbol
 _atom_site_label
 _atom_site_symmetry_multiplicity
 _atom_site_fract_x
 _atom_site_fract_y
 _atom_site_fract_z
 _atom_site_occupancy
  Hf  Hf0  1  0.17157491  0.71894266  0.36718409  1
  Hf  Hf1  1  0.37380866  0.92078176  0.77123024  1
  Hf  Hf2  1  0.56237926  0.10986886  0.14886622  1
  Al  Al3  1  0.77567920  0.32267418  0.57521037  1
  Zn  Zn4  1  0.96825405  0.51561268  0.96025829  1
