data_image0
_chemical_formula_structural       RuHfPtGe2HfGeRuHf2Al
_chemical_formula_sum              "Ru2 Hf4 Pt1 Ge3 Al1"
_cell_length_a       4.131484683868085
_cell_length_b       4.094490227138144
_cell_length_c       13.83975601196289
_cell_angle_alpha    90.23685297400326
_cell_angle_beta     90.40585234391685
_cell_angle_gamma    120.62962059269715

_space_group_name_H-M_alt    "P 1"
_space_group_IT_number       1

loop_
  _space_group_symop_operation_xyz
  'x, y, z'

loop_
  _atom_site_type_symbol
  _atom_site_label
  _atom_site_symmetry_multiplicity
  _atom_site_fract_x
  _atom_site_fract_y
  _atom_site_fract_z
  _atom_site_occupancy
  Ru  Ru1       1.0  0.5751142501831055  0.31221961975097656  0.13965380191802979  1.0000
  Hf  Hf1       1.0  0.23952585458755493  0.6419353485107422  0.2696967124938965  1.0000
  Pt  Pt1       1.0  0.5742952823638916  0.31191548705101013  0.35246905684471125  1.0000
  Ge  Ge1       1.0  0.24181134998798376  0.6452439427375795  0.07837965339422226  1.0000
  Ge  Ge2       1.0  0.574176013469696  0.3097728490829468  0.875597596168518  1.0000
  Hf  Hf2       1.0  0.9068621397018433  0.9734666347503662  0.7472515702247619  1.0000
  Ge  Ge3       1.0  0.23997187614440918  0.6409499645233154  0.6499665975570678  1.0000
  Ru  Ru2       1.0  0.24154554307460785  0.6423542499542236  0.8555458784103392  1.0000
  Hf  Hf3       1.0  0.9089307188987732  0.9778224825859071  0.9920530319213866  1.0000
  Hf  Hf4       1.0  0.5737135410308838  0.30993461608886724  0.5527439117431641  1.0000
  Al  Al1       1.0  0.908547043800354  0.9792986512184143  0.4238722920417785  1.0000
