# generated using pymatgen
data_Hf4MoC3
_symmetry_space_group_name_H-M   'P 1'
_cell_length_a   3.31062470
_cell_length_b   3.31348289
_cell_length_c   10.77755119
_cell_angle_alpha   81.19112370
_cell_angle_beta   98.76281251
_cell_angle_gamma   89.97007333
_symmetry_Int_Tables_number   1
_chemical_formula_structural   Hf4MoC3
_chemical_formula_sum   'Hf4 Mo1 C3'
_cell_volume   115.43380020
_cell_formula_units_Z   1
loop_
 _symmetry_equiv_pos_site_id
 _symmetry_equiv_pos_as_xyz
  1  'x, y, z'
loop_
 _atom_site_type_symbol
 _atom_site_label
 _atom_site_symmetry_multiplicity
 _atom_site_fract_x
 _atom_site_fract_y
 _atom_site_fract_z
 _atom_site_occupancy
  Hf  Hf0  1  0.00990653  0.69017403  0.97223286  1
  Hf  Hf1  1  0.39551877  0.30443283  0.74432158  1
  Hf  Hf2  1  0.22405807  0.47634425  0.39956621  1
  Hf  Hf3  1  0.61629531  0.08352963  0.18493980  1
  Mo  Mo4  1  0.82211383  0.87802099  0.59620388  1
  C  C5  1  0.50368802  0.19629546  0.95932262  1
  C  C6  1  0.72624882  -0.02576874  0.40415556  1
  C  C7  1  0.11577013  0.58414244  0.18385794  1
