data_image0
_chemical_formula_structural       TaPd2PTaPd3TaPd3HfPd3
_chemical_formula_sum              "Ta3 Pd11 P1 Hf1"
_cell_length_a       3.909542875243383
_cell_length_b       7.459184620634311
_cell_length_c       8.971606254577637
_cell_angle_alpha    97.57481951489179
_cell_angle_beta     89.97701208691458
_cell_angle_gamma    74.70816557904323

_space_group_name_H-M_alt    "P 1"
_space_group_IT_number       1

loop_
  _space_group_symop_operation_xyz
  'x, y, z'

loop_
  _atom_site_type_symbol
  _atom_site_label
  _atom_site_symmetry_multiplicity
  _atom_site_fract_x
  _atom_site_fract_y
  _atom_site_fract_z
  _atom_site_occupancy
  Ta  Ta1       1.0  0.12857185304164875  0.9370941519737245  0.8823773264884949  1.0000
  Pd  Pd1       1.0  0.31258177757263184  0.5696424245834351  0.9436095952987671  1.0000
  Pd  Pd2       1.0  0.002207756508141756  0.19507113099098206  0.504327654838562  1.0000
  P   P1        1.0  0.620220959186554  0.9518814086914062  0.38471052050590515  1.0000
  Ta  Ta2       1.0  0.24584791064262393  0.7011258006095886  0.25711438059806824  1.0000
  Pd  Pd3       1.0  0.06382293254137039  0.06667076051235199  0.19442607462406158  1.0000
  Pd  Pd4       1.0  0.43777555227279663  0.3163999617099762  0.31787994503974915  1.0000
  Pd  Pd5       1.0  0.18135482072830195  0.8281502723693849  0.5614178776741028  1.0000
  Ta  Ta3       1.0  0.9372261166572571  0.3204658329486847  0.8257877826690674  1.0000
  Pd  Pd6       1.0  0.6864866018295289  0.8223956227302551  0.06981739401817322  1.0000
  Pd  Pd7       1.0  0.7483235001564027  0.6983168125152588  0.7570661902427673  1.0000
  Pd  Pd8       1.0  0.8104057908058168  0.5764064788818359  0.4383881688117981  1.0000
  Hf  Hf1       1.0  0.3679783344268799  0.4565771222114563  0.6218436360359192  1.0000
  Pd  Pd9       1.0  0.874078631401062  0.44748812913894653  0.1293322890996933  1.0000
  Pd  Pd10      1.0  0.5013771057128906  0.19239240884780887  0.0034482148475944996  1.0000
  Pd  Pd11      1.0  0.5606403350830078  0.07152891159057619  0.6902727484703064  1.0000
