data_image0
_chemical_formula_structural       HgOHg
_chemical_formula_sum              "Hg2 O1"
_cell_length_a       3.598197743293907
_cell_length_b       3.5742063043909527
_cell_length_c       5.6171698570251465
_cell_angle_alpha    89.47106581231338
_cell_angle_beta     89.53492129716547
_cell_angle_gamma    60.570076501620335

_space_group_name_H-M_alt    "P 1"
_space_group_IT_number       1

loop_
  _space_group_symop_operation_xyz
  'x, y, z'

loop_
  _atom_site_type_symbol
  _atom_site_label
  _atom_site_symmetry_multiplicity
  _atom_site_fract_x
  _atom_site_fract_y
  _atom_site_fract_z
  _atom_site_occupancy
  Hg  Hg1       1.0  0.8470563292503357  0.34751376509666443  0.6183421611785889  1.0000
  O   O1        1.0  0.8437023758888245  0.34324404597282415  0.017585812136530876  1.0000
  Hg  Hg2       1.0  0.5084646344184875  0.010241310112178326  0.1930992305278778  1.0000
