data_image0
_chemical_formula_structural       AuHgAu2
_chemical_formula_sum              "Au3 Hg1"
_cell_length_a       4.947588774039262
_cell_length_b       4.948113937577112
_cell_length_c       4.945838928222656
_cell_angle_alpha    59.8473554166789
_cell_angle_beta     59.81550441565292
_cell_angle_gamma    59.827498877154525

_space_group_name_H-M_alt    "P 1"
_space_group_IT_number       1

loop_
  _space_group_symop_operation_xyz
  'x, y, z'

loop_
  _atom_site_type_symbol
  _atom_site_label
  _atom_site_symmetry_multiplicity
  _atom_site_fract_x
  _atom_site_fract_y
  _atom_site_fract_z
  _atom_site_occupancy
  Au  Au1       1.0  0.5758166909217834  0.20930147171020508  0.8715401887893677  1.0000
  Hg  Hg1       1.0  0.82615464925766  0.4590132534503936  0.12171553075313568  1.0000
  Au  Au2       1.0  0.3263548910617829  0.9594041705131531  0.6211910843849182  1.0000
  Au  Au3       1.0  0.07601197808980942  0.7093640565872192  0.3718104958534241  1.0000
