# generated using pymatgen
data_Ho2Pd2Pb
_symmetry_space_group_name_H-M   'P 1'
_cell_length_a   5.92039716
_cell_length_b   4.65568820
_cell_length_c   8.64109028
_cell_angle_alpha   105.61106226
_cell_angle_beta   97.22727546
_cell_angle_gamma   89.97561540
_symmetry_Int_Tables_number   1
_chemical_formula_structural   Ho2Pd2Pb
_chemical_formula_sum   'Ho4 Pd4 Pb2'
_cell_volume   227.43074870
_cell_formula_units_Z   2
loop_
 _symmetry_equiv_pos_site_id
 _symmetry_equiv_pos_as_xyz
  1  'x, y, z'
loop_
 _atom_site_type_symbol
 _atom_site_label
 _atom_site_symmetry_multiplicity
 _atom_site_fract_x
 _atom_site_fract_y
 _atom_site_fract_z
 _atom_site_occupancy
  Ho  Ho0  1  0.33954442  0.31910310  0.72172806  1
  Ho  Ho1  1  0.47565086  0.09254554  0.26808205  1
  Ho  Ho2  1  0.88963278  0.53217573  0.14729244  1
  Ho  Ho3  1  0.79618752  0.74796759  0.57965288  1
  Pd  Pd4  1  0.83365860  0.35469142  0.79289041  1
  Pd  Pd5  1  0.61812655  0.92694743  0.93743833  1
  Pd  Pd6  1  0.39247114  0.49364512  0.07001371  1
  Pd  Pd7  1  0.95882545  0.15731712  0.39795460  1
  Pb  Pb8  1  0.11306262  0.92418410  0.93147380  1
  Pb  Pb9  1  0.27773393  0.68496769  0.45298722  1
