# generated using pymatgen
data_Ho4In5PdAu2
_symmetry_space_group_name_H-M   'P 1'
_cell_length_a   4.71901010
_cell_length_b   7.26353499
_cell_length_c   8.25124931
_cell_angle_alpha   90.38648122
_cell_angle_beta   90.00019840
_cell_angle_gamma   89.99949206
_symmetry_Int_Tables_number   1
_chemical_formula_structural   Ho4In5PdAu2
_chemical_formula_sum   'Ho4 In5 Pd1 Au2'
_cell_volume   282.81912137
_cell_formula_units_Z   1
loop_
 _symmetry_equiv_pos_site_id
 _symmetry_equiv_pos_as_xyz
  1  'x, y, z'
loop_
 _atom_site_type_symbol
 _atom_site_label
 _atom_site_symmetry_multiplicity
 _atom_site_fract_x
 _atom_site_fract_y
 _atom_site_fract_z
 _atom_site_occupancy
  Ho  Ho0  1  0.54893636  0.75752990  0.18796872  1
  Ho  Ho1  1  0.54892012  0.28554702  0.10627689  1
  Ho  Ho2  1  0.04849637  0.77620356  0.62089029  1
  Ho  Ho3  1  0.04856861  0.29733108  0.70978589  1
  In  In4  1  0.54847432  0.58804600  0.82569197  1
  In  In5  1  0.04897587  0.48201749  0.31693604  1
  In  In6  1  0.04911224  0.95015072  0.97766608  1
  In  In7  1  0.54856369  0.09234318  0.49420027  1
  In  In8  1  0.04872533  0.05017895  0.30939990  1
  Pd  Pd9  1  0.04844548  0.55446647  0.98996915  1
  Au  Au10  1  0.54912523  0.01492937  0.81913749  1
  Au  Au11  1  0.54888329  0.50607987  0.49553521  1
