data_image0
_chemical_formula_structural       LuSHoS
_chemical_formula_sum              "Lu1 S2 Ho1"
_cell_length_a       3.831701897390469
_cell_length_b       3.828476844288734
_cell_length_c       6.622788429260254
_cell_angle_alpha    73.41831744740264
_cell_angle_beta     73.35305321411715
_cell_angle_gamma    59.92560196403774

_space_group_name_H-M_alt    "P 1"
_space_group_IT_number       1

loop_
  _space_group_symop_operation_xyz
  'x, y, z'

loop_
  _atom_site_type_symbol
  _atom_site_label
  _atom_site_symmetry_multiplicity
  _atom_site_fract_x
  _atom_site_fract_y
  _atom_site_fract_z
  _atom_site_occupancy
  Lu  Lu1       1.0  0.18225178122520436  0.9639412164688111  0.634290337562561  1.0000
  S   S1        1.0  0.4331948757171631  0.21699909865856173  0.8777987360954286  1.0000
  Ho  Ho1       1.0  0.6809479594230652  0.4639367163181305  0.13541382551193237  1.0000
  S   S2        1.0  0.9285045862197876  0.7113820314407349  0.39158442616462713  1.0000
