# generated using pymatgen
data_HoSc2HO5F
_symmetry_space_group_name_H-M   'P 1'
_cell_length_a   3.76415701
_cell_length_b   3.82008470
_cell_length_c   8.52854711
_cell_angle_alpha   93.91969455
_cell_angle_beta   86.67010568
_cell_angle_gamma   89.68808082
_symmetry_Int_Tables_number   1
_chemical_formula_structural   HoSc2HO5F
_chemical_formula_sum   'Ho1 Sc2 H1 O5 F1'
_cell_volume   122.13649021
_cell_formula_units_Z   1
loop_
 _symmetry_equiv_pos_site_id
 _symmetry_equiv_pos_as_xyz
  1  'x, y, z'
loop_
 _atom_site_type_symbol
 _atom_site_label
 _atom_site_symmetry_multiplicity
 _atom_site_fract_x
 _atom_site_fract_y
 _atom_site_fract_z
 _atom_site_occupancy
  Ho  Ho0  1  0.01676605  0.22243707  0.33643011  1
  Sc  Sc1  1  0.48426307  0.76261001  0.58310522  1
  Sc  Sc2  1  0.54889659  0.66497994  0.03057731  1
  H  H3  1  0.16234382  0.23342115  0.85657464  1
  O  O4  1  0.55067017  0.17914003  0.14397586  1
  O  O5  1  0.43767502  0.86663720  0.81952385  1
  O  O6  1  0.49868234  0.24668110  0.48709317  1
  O  O7  1  -0.00210585  0.74684832  0.48672678  1
  O  O8  1  0.06692973  0.46336100  0.90680911  1
  F  F9  1  0.04457829  0.70308524  0.18200992  1
