data_image0
_chemical_formula_structural       Te2Ho
_chemical_formula_sum              "Te2 Ho1"
_cell_length_a       4.307623033813398
_cell_length_b       4.323052096174635
_cell_length_c       7.225933074951172
_cell_angle_alpha    90.04125001627614
_cell_angle_beta     89.86184827157606
_cell_angle_gamma    59.73934783608413

_space_group_name_H-M_alt    "P 1"
_space_group_IT_number       1

loop_
  _space_group_symop_operation_xyz
  'x, y, z'

loop_
  _atom_site_type_symbol
  _atom_site_label
  _atom_site_symmetry_multiplicity
  _atom_site_fract_x
  _atom_site_fract_y
  _atom_site_fract_z
  _atom_site_occupancy
  Te  Te1       1.0  0.09649216383695604  0.5408092141151428  0.7388918399810791  1.0000
  Te  Te2       1.0  0.7613230347633362  0.20465011894702909  0.23722012341022491  1.0000
  Ho  Ho1       1.0  0.4286796748638153  0.8717594146728515  0.9878242611885071  1.0000
