# generated using pymatgen
data_HoTmRu2
_symmetry_space_group_name_H-M   'P 1'
_cell_length_a   4.76439310
_cell_length_b   4.76690296
_cell_length_c   4.76384874
_cell_angle_alpha   59.96407812
_cell_angle_beta   59.95119276
_cell_angle_gamma   60.01957643
_symmetry_Int_Tables_number   1
_chemical_formula_structural   HoTmRu2
_chemical_formula_sum   'Ho1 Tm1 Ru2'
_cell_volume   76.46674250
_cell_formula_units_Z   1
loop_
 _symmetry_equiv_pos_site_id
 _symmetry_equiv_pos_as_xyz
  1  'x, y, z'
loop_
 _atom_site_type_symbol
 _atom_site_label
 _atom_site_symmetry_multiplicity
 _atom_site_fract_x
 _atom_site_fract_y
 _atom_site_fract_z
 _atom_site_occupancy
  Ho  Ho0  1  0.05858036  0.10978228  0.67632820  1
  Tm  Tm1  1  0.55854702  0.60977600  0.17636279  1
  Ru  Ru2  1  0.80840427  0.85981493  0.42637414  1
  Ru  Ru3  1  0.30855817  0.35983174  0.92642893  1
