data_image0
_chemical_formula_structural       InSeBiInSe3
_chemical_formula_sum              "In2 Se4 Bi1"
_cell_length_a       4.332430550522935
_cell_length_b       7.386847989403146
_cell_length_c       7.3822150230407715
_cell_angle_alpha    113.87678000079578
_cell_angle_beta     89.96826261278207
_cell_angle_gamma    89.74302344313581

_space_group_name_H-M_alt    "P 1"
_space_group_IT_number       1

loop_
  _space_group_symop_operation_xyz
  'x, y, z'

loop_
  _atom_site_type_symbol
  _atom_site_label
  _atom_site_symmetry_multiplicity
  _atom_site_fract_x
  _atom_site_fract_y
  _atom_site_fract_z
  _atom_site_occupancy
  In  In1       1.0  0.32936611771583557  0.12752044200897217  0.055571760982275  1.0000
  Se  Se1       1.0  0.3300926983356476  0.21153785288333896  0.4514854848384857  1.0000
  Bi  Bi1       1.0  0.8296604752540588  0.4678524434566498  0.7032989859580994  1.0000
  In  In2       1.0  0.3271653354167938  0.8103591799736024  0.3529806137084961  1.0000
  Se  Se2       1.0  0.8276051878929138  0.7068112492561341  0.4744137227535248  1.0000
  Se  Se3       1.0  0.3291536271572113  0.7233674526214601  0.9542664289474487  1.0000
  Se  Se4       1.0  0.8293628692626953  0.23110659420490265  0.9320842027664185  1.0000
