data_image0
_chemical_formula_structural       PdAgInPd
_chemical_formula_sum              "Pd2 Ag1 In1"
_cell_length_a       4.543613931910497
_cell_length_b       4.548236340602016
_cell_length_c       4.548181533813477
_cell_angle_alpha    60.29566876250286
_cell_angle_beta     60.421931506816755
_cell_angle_gamma    60.38728134368482

_space_group_name_H-M_alt    "P 1"
_space_group_IT_number       1

loop_
  _space_group_symop_operation_xyz
  'x, y, z'

loop_
  _atom_site_type_symbol
  _atom_site_label
  _atom_site_symmetry_multiplicity
  _atom_site_fract_x
  _atom_site_fract_y
  _atom_site_fract_z
  _atom_site_occupancy
  Pd  Pd1       1.0  0.850477635860443  0.6319873929023743  0.7471326589584352  1.0000
  Ag  Ag1       1.0  0.1006890684366226  0.8817539811134338  0.9971981048583984  1.0000
  In  In1       1.0  0.6003264784812926  0.3819130957126618  0.4969615340232849  1.0000
  Pd  Pd2       1.0  0.3505039811134338  0.1318109631538391  0.246341273188591  1.0000
