# generated using pymatgen
data_InCu3O2
_symmetry_space_group_name_H-M   'P 1'
_cell_length_a   3.60158978
_cell_length_b   3.38731695
_cell_length_c   8.66695853
_cell_angle_alpha   90.69486692
_cell_angle_beta   81.04243125
_cell_angle_gamma   123.16499382
_symmetry_Int_Tables_number   1
_chemical_formula_structural   InCu3O2
_chemical_formula_sum   'In1 Cu3 O2'
_cell_volume   87.08890481
_cell_formula_units_Z   1
loop_
 _symmetry_equiv_pos_site_id
 _symmetry_equiv_pos_as_xyz
  1  'x, y, z'
loop_
 _atom_site_type_symbol
 _atom_site_label
 _atom_site_symmetry_multiplicity
 _atom_site_fract_x
 _atom_site_fract_y
 _atom_site_fract_z
 _atom_site_occupancy
  In  In0  1  -0.17848642  0.65983701  0.28306981  1
  Cu  Cu1  1  0.68680643  0.04260953  0.94216462  1
  Cu  Cu2  1  0.01975541  0.25316282  0.50229441  1
  Cu  Cu3  1  0.21605930  -0.12632599  0.71746062  1
  O  O4  1  0.77579287  -0.00329190  0.72748978  1
  O  O5  1  0.55424647  0.01643923  0.15607641  1
