data_image0
_chemical_formula_structural       Se2InGaSe
_chemical_formula_sum              "Se3 In1 Ga1"
_cell_length_a       3.8095373919360584
_cell_length_b       3.806980675803968
_cell_length_c       10.502214431762695
_cell_angle_alpha    89.56119702784183
_cell_angle_beta     89.73037396113592
_cell_angle_gamma    119.69375279654703

_space_group_name_H-M_alt    "P 1"
_space_group_IT_number       1

loop_
  _space_group_symop_operation_xyz
  'x, y, z'

loop_
  _atom_site_type_symbol
  _atom_site_label
  _atom_site_symmetry_multiplicity
  _atom_site_fract_x
  _atom_site_fract_y
  _atom_site_fract_z
  _atom_site_occupancy
  Se  Se1       1.0  0.32084646821022034  0.21398900449275968  0.6155232191085815  1.0000
  Se  Se2       1.0  0.9848638772964476  0.5452820062637329  0.2669927477836609  1.0000
  In  In1       1.0  0.9865337014198302  0.5484737157821655  0.7680970430374146  1.0000
  Ga  Ga1       1.0  0.6527828574180603  0.8796906471252441  0.1346530318260193  1.0000
  Se  Se3       1.0  0.3182968497276306  0.21344634890556333  0.9735328555107117  1.0000
