# generated using pymatgen
data_InPd4
_symmetry_space_group_name_H-M   'P 1'
_cell_length_a   4.07764933
_cell_length_b   4.07106579
_cell_length_c   9.97526008
_cell_angle_alpha   101.85030112
_cell_angle_beta   90.01335700
_cell_angle_gamma   89.98007886
_symmetry_Int_Tables_number   1
_chemical_formula_structural   InPd4
_chemical_formula_sum   'In2 Pd8'
_cell_volume   162.06387720
_cell_formula_units_Z   2
loop_
 _symmetry_equiv_pos_site_id
 _symmetry_equiv_pos_as_xyz
  1  'x, y, z'
loop_
 _atom_site_type_symbol
 _atom_site_label
 _atom_site_symmetry_multiplicity
 _atom_site_fract_x
 _atom_site_fract_y
 _atom_site_fract_z
 _atom_site_occupancy
  In  In0  1  0.31807913  0.54832020  0.05776349  1
  In  In1  1  0.81798660  0.25146975  0.46473923  1
  Pd  Pd2  1  0.31804404  0.74984949  0.46092302  1
  Pd  Pd3  1  0.81806400  0.64907786  0.26033916  1
  Pd  Pd4  1  0.81806980  0.04994568  0.06159705  1
  Pd  Pd5  1  0.81799014  0.85119410  0.66346277  1
  Pd  Pd6  1  0.31805806  0.94910341  0.85907326  1
  Pd  Pd7  1  0.81804483  0.44952716  0.85964815  1
  Pd  Pd8  1  0.31808197  0.35064341  0.66282944  1
  Pd  Pd9  1  0.31803657  0.15036063  0.26207921  1
