# generated using pymatgen
data_K2Br3
_symmetry_space_group_name_H-M   'P 1'
_cell_length_a   5.85880315
_cell_length_b   5.25272454
_cell_length_c   6.84563761
_cell_angle_alpha   90.03439557
_cell_angle_beta   84.04979315
_cell_angle_gamma   63.32519171
_symmetry_Int_Tables_number   1
_chemical_formula_structural   K2Br3
_chemical_formula_sum   'K2 Br3'
_cell_volume   186.97244628
_cell_formula_units_Z   1
loop_
 _symmetry_equiv_pos_site_id
 _symmetry_equiv_pos_as_xyz
  1  'x, y, z'
loop_
 _atom_site_type_symbol
 _atom_site_label
 _atom_site_symmetry_multiplicity
 _atom_site_fract_x
 _atom_site_fract_y
 _atom_site_fract_z
 _atom_site_occupancy
  K  K0  1  0.89665768  0.98568128  0.15929864  1
  K  K1  1  0.29594632  0.28609158  0.73364505  1
  Br  Br2  1  0.93301945  0.96767964  0.64164279  1
  Br  Br3  1  0.59628284  0.63593244  0.94647476  1
  Br  Br4  1  0.25958829  0.30412163  0.25129914  1
