data_image0
_chemical_formula_structural       Cl2AuClCuCl2K2Cl
_chemical_formula_sum              "Cl6 Au1 Cu1 K2"
_cell_length_a       7.103291189754388
_cell_length_b       7.105920722143797
_cell_length_c       7.11356258392334
_cell_angle_alpha    59.38368744292002
_cell_angle_beta     59.499378417281356
_cell_angle_gamma    59.50650863252515

_space_group_name_H-M_alt    "P 1"
_space_group_IT_number       1

loop_
  _space_group_symop_operation_xyz
  'x, y, z'

loop_
  _atom_site_type_symbol
  _atom_site_label
  _atom_site_symmetry_multiplicity
  _atom_site_fract_x
  _atom_site_fract_y
  _atom_site_fract_z
  _atom_site_occupancy
  Cl  Cl1       1.0  0.9625796675682068  0.6309565901756287  0.8663742542266846  1.0000
  Cl  Cl2       1.0  0.47540873289108276  0.11747685819864273  0.8664875626564026  1.0000
  Au  Au1       1.0  0.2195492833852768  0.37397587299346924  0.6105914115905762  1.0000
  Cl  Cl3       1.0  0.47629058361053467  0.6287660002708435  0.3542395830154419  1.0000
  Cu  Cu1       1.0  0.7196942567825317  0.8732960224151612  0.10964374244213092  1.0000
  Cl  Cl4       1.0  0.962687075138092  0.11808250099420547  0.8660634756088257  1.0000
  Cl  Cl5       1.0  0.9633693695068359  0.6302399039268494  0.3532227873802184  1.0000
  K   K1        1.0  0.4697520136833192  0.6233463883399963  0.8596289157867432  1.0000
  K   K2        1.0  0.9699958562850952  0.12347488850355148  0.35988891124725336  1.0000
  Cl  Cl6       1.0  0.475991427898407  0.11744537204504013  0.35310032963752747  1.0000
