data_image0
_chemical_formula_structural       F2KCuKF4
_chemical_formula_sum              "F6 K2 Cu1"
_cell_length_a       4.014456642220434
_cell_length_b       3.9770683867106227
_cell_length_c       8.840744018554688
_cell_angle_alpha    89.51046921919826
_cell_angle_beta     89.31550825832808
_cell_angle_gamma    89.14364702978905

_space_group_name_H-M_alt    "P 1"
_space_group_IT_number       1

loop_
  _space_group_symop_operation_xyz
  'x, y, z'

loop_
  _atom_site_type_symbol
  _atom_site_label
  _atom_site_symmetry_multiplicity
  _atom_site_fract_x
  _atom_site_fract_y
  _atom_site_fract_z
  _atom_site_occupancy
  F   F1        1.0  0.09415017813444138  0.9266947507858277  0.4314744174480438  1.0000
  F   F2        1.0  0.5930334329605103  0.4235348105430603  0.9304199814796448  1.0000
  K   K1        1.0  0.5972033739089966  0.9280841946601869  0.2193327248096466  1.0000
  Cu  Cu1       1.0  0.09264585375785828  0.4247960150241852  0.9322822690010071  1.0000
  K   K2        1.0  0.5935359597206116  0.9246068000793458  0.6461387276649475  1.0000
  F   F3        1.0  0.5954249501228333  0.427920550107956  0.4307352304458618  1.0000
  F   F4        1.0  0.0929703339934349  0.9247963428497316  0.9312038421630859  1.0000
  F   F5        1.0  0.09406384080648422  0.4251311123371125  0.1432441920042038  1.0000
  F   F6        1.0  0.09398500621318817  0.42512366175651556  0.7195882797241211  1.0000
