# generated using pymatgen
data_K2NdTeO6
_symmetry_space_group_name_H-M   'P 1'
_cell_length_a   4.31521671
_cell_length_b   6.06957838
_cell_length_c   6.07081823
_cell_angle_alpha   89.99884780
_cell_angle_beta   90.02170635
_cell_angle_gamma   90.03910243
_symmetry_Int_Tables_number   1
_chemical_formula_structural   K2NdTeO6
_chemical_formula_sum   'K2 Nd1 Te1 O6'
_cell_volume   159.00406676
_cell_formula_units_Z   1
loop_
 _symmetry_equiv_pos_site_id
 _symmetry_equiv_pos_as_xyz
  1  'x, y, z'
loop_
 _atom_site_type_symbol
 _atom_site_label
 _atom_site_symmetry_multiplicity
 _atom_site_fract_x
 _atom_site_fract_y
 _atom_site_fract_z
 _atom_site_occupancy
  K  K0  1  0.14665919  0.03586990  0.24894227  1
  K  K1  1  0.14675675  0.53595822  0.74916055  1
  Nd  Nd2  1  0.64666836  0.03607504  0.74914495  1
  Te  Te3  1  0.64721705  0.53613500  0.24907224  1
  O  O4  1  0.64662146  0.31343449  0.47169452  1
  O  O5  1  0.14617966  0.53644631  0.24857004  1
  O  O6  1  0.14666875  0.03596965  0.74992996  1
  O  O7  1  0.64585039  0.31341269  0.02651510  1
  O  O8  1  0.64645913  0.75879621  0.02650589  1
  O  O9  1  0.64718020  0.75875408  0.47174909  1
