data_image0
_chemical_formula_structural       ZrKO3InKO3
_chemical_formula_sum              "Zr1 K2 O6 In1"
_cell_length_a       6.039039473374884
_cell_length_b       5.43854235377289
_cell_length_c       5.45188045501709
_cell_angle_alpha    102.52639171190785
_cell_angle_beta     90.03747975275571
_cell_angle_gamma    90.48991145623903

_space_group_name_H-M_alt    "P 1"
_space_group_IT_number       1

loop_
  _space_group_symop_operation_xyz
  'x, y, z'

loop_
  _atom_site_type_symbol
  _atom_site_label
  _atom_site_symmetry_multiplicity
  _atom_site_fract_x
  _atom_site_fract_y
  _atom_site_fract_z
  _atom_site_occupancy
  Zr  Zr1       1.0  0.7965741753578185  0.20971524715423584  0.9559708237648011  1.0000
  K   K1        1.0  0.2963916063308716  0.7102739810943604  0.9563964009284974  1.0000
  O   O1        1.0  0.563417375087738  0.963506817817688  0.7150993943214417  1.0000
  O   O2        1.0  0.7939661145210265  0.45322081446647644  0.7104564309120178  1.0000
  O   O3        1.0  0.02869264222681522  0.4553887844085693  0.19787722826004028  1.0000
  In  In1       1.0  0.7962806224822997  0.7087970972061156  0.4560715556144715  1.0000
  K   K2        1.0  0.2958034574985504  0.2095733880996704  0.45734223723411566  1.0000
  O   O4        1.0  0.5641213059425354  0.4519992470741272  0.20346546173095706  1.0000
  O   O5        1.0  0.029272435232996937  0.9656869769096375  0.7092404961585999  1.0000
  O   O6        1.0  0.7931895852088927  0.9644171595573424  0.20170584321022028  1.0000
