# generated using pymatgen
data_K3GeTe4
_symmetry_space_group_name_H-M   'P 1'
_cell_length_a   4.98433040
_cell_length_b   7.55982828
_cell_length_c   8.68052978
_cell_angle_alpha   102.08500004
_cell_angle_beta   90.02670653
_cell_angle_gamma   89.97065550
_symmetry_Int_Tables_number   1
_chemical_formula_structural   K3GeTe4
_chemical_formula_sum   'K3 Ge1 Te4'
_cell_volume   319.83931426
_cell_formula_units_Z   1
loop_
 _symmetry_equiv_pos_site_id
 _symmetry_equiv_pos_as_xyz
  1  'x, y, z'
loop_
 _atom_site_type_symbol
 _atom_site_label
 _atom_site_symmetry_multiplicity
 _atom_site_fract_x
 _atom_site_fract_y
 _atom_site_fract_z
 _atom_site_occupancy
  K  K0  1  0.25520197  0.02932345  0.41171626  1
  K  K1  1  0.25568364  0.75003616  0.91029760  1
  K  K2  1  0.25488115  0.22647598  0.89283995  1
  Ge  Ge3  1  0.75474278  0.42879808  0.28925633  1
  Te  Te4  1  0.25471165  0.56548823  0.24203305  1
  Te  Te5  1  0.75527370  0.46551586  0.61220149  1
  Te  Te6  1  0.75509368  0.09043653  0.13395221  1
  Te  Te7  1  0.75536833  0.85033360  0.66703962  1
