# generated using pymatgen
data_K3Hg5
_symmetry_space_group_name_H-M   'P 1'
_cell_length_a   6.75549518
_cell_length_b   7.20124770
_cell_length_c   7.27032565
_cell_angle_alpha   125.08109532
_cell_angle_beta   97.80279069
_cell_angle_gamma   82.64385642
_symmetry_Int_Tables_number   1
_chemical_formula_structural   K3Hg5
_chemical_formula_sum   'K3 Hg5'
_cell_volume   286.20998976
_cell_formula_units_Z   1
loop_
 _symmetry_equiv_pos_site_id
 _symmetry_equiv_pos_as_xyz
  1  'x, y, z'
loop_
 _atom_site_type_symbol
 _atom_site_label
 _atom_site_symmetry_multiplicity
 _atom_site_fract_x
 _atom_site_fract_y
 _atom_site_fract_z
 _atom_site_occupancy
  K  K0  1  0.42153467  0.79925972  0.12726436  1
  K  K1  1  0.65994951  0.46933207  0.47866079  1
  K  K2  1  0.03761273  0.37524574  0.04572800  1
  Hg  Hg3  1  0.86745569  0.97484352  0.46907594  1
  Hg  Hg4  1  0.19997343  0.79070876  0.64870185  1
  Hg  Hg5  1  0.18467957  0.31416189  0.55928253  1
  Hg  Hg6  1  0.53457703  0.14797766  0.81936842  1
  Hg  Hg7  1  0.89576283  0.89791247  0.00314486  1
