data_image0
_chemical_formula_structural       PKP3K2P3
_chemical_formula_sum              "P7 K3"
_cell_length_a       6.157565508427387
_cell_length_b       7.217159277406838
_cell_length_c       8.030384063720703
_cell_angle_alpha    70.52062238299497
_cell_angle_beta     67.75957275805362
_cell_angle_gamma    89.6774057971191

_space_group_name_H-M_alt    "P 1"
_space_group_IT_number       1

loop_
  _space_group_symop_operation_xyz
  'x, y, z'

loop_
  _atom_site_type_symbol
  _atom_site_label
  _atom_site_symmetry_multiplicity
  _atom_site_fract_x
  _atom_site_fract_y
  _atom_site_fract_z
  _atom_site_occupancy
  P   P1        1.0  0.8555822372436523  0.5519611239433289  0.29962304234504705  1.0000
  K   K1        1.0  0.623289942741394  0.5981260538101196  0.7589722871780396  1.0000
  P   P2        1.0  0.18688179552555084  0.21967005729675293  0.11592890322208406  1.0000
  P   P3        1.0  0.8377035856246948  0.0652519017457962  0.3562781512737274  1.0000
  P   P4        1.0  0.7180792093276978  0.2120046764612198  0.11394459754228592  1.0000
  K   K2        1.0  0.13764595985412598  0.10870441794395445  0.7318555116653442  1.0000
  K   K3        1.0  0.3527381718158722  0.7585233449935913  0.2973740994930268  1.0000
  P   P5        1.0  0.7382926940917969  0.2625339925289154  0.5298401713371277  1.0000
  P   P6        1.0  0.9908255934715269  0.47966489195823664  0.02466247975826269  1.0000
  P   P7        1.0  0.39152780175209045  0.31599134206771845  0.2418409585952759  1.0000
