data_image0
_chemical_formula_structural       KAgBrAgBrKBr4
_chemical_formula_sum              "K2 Ag2 Br6"
_cell_length_a       5.444902592660219
_cell_length_b       7.345451258347299
_cell_length_c       7.3666558265686035
_cell_angle_alpha    90.27912504562748
_cell_angle_beta     89.8722984542306
_cell_angle_gamma    90.017378506025

_space_group_name_H-M_alt    "P 1"
_space_group_IT_number       1

loop_
  _space_group_symop_operation_xyz
  'x, y, z'

loop_
  _atom_site_type_symbol
  _atom_site_label
  _atom_site_symmetry_multiplicity
  _atom_site_fract_x
  _atom_site_fract_y
  _atom_site_fract_z
  _atom_site_occupancy
  K   K1        1.0  0.38737884163856506  0.7832364439964294  0.012050807476043701  1.0000
  Ag  Ag1       1.0  0.8862161040306091  0.7835121750831604  0.5123623609542847  1.0000
  Br  Br1       1.0  0.3865235149860382  0.28408873081207275  0.011263417080044746  1.0000
  Ag  Ag2       1.0  0.887306809425354  0.28457504510879517  0.012594507075846195  1.0000
  Br  Br2       1.0  0.8862107396125793  0.09515611082315446  0.32387691736221313  1.0000
  K   K2        1.0  0.3874955475330353  0.28411069512367254  0.512991726398468  1.0000
  Br  Br3       1.0  0.38589584827423096  0.7830734848976135  0.5114566683769226  1.0000
  Br  Br4       1.0  0.8864352703094482  0.47297045588493347  0.7001575827598572  1.0000
  Br  Br5       1.0  0.8869435787200928  0.9718157649040223  0.8246805071830751  1.0000
  Br  Br6       1.0  0.8860598206520081  0.5954274535179138  0.20061609148979187  1.0000
