data_image0
_chemical_formula_structural       FKF4RuAgF2
_chemical_formula_sum              "F7 K1 Ru1 Ag1"
_cell_length_a       6.1550064858826055
_cell_length_b       6.150350204898402
_cell_length_c       6.162558555603027
_cell_angle_alpha    60.04444671596658
_cell_angle_beta     59.91465282135219
_cell_angle_gamma    59.953555594038235

_space_group_name_H-M_alt    "P 1"
_space_group_IT_number       1

loop_
  _space_group_symop_operation_xyz
  'x, y, z'

loop_
  _atom_site_type_symbol
  _atom_site_label
  _atom_site_symmetry_multiplicity
  _atom_site_fract_x
  _atom_site_fract_y
  _atom_site_fract_z
  _atom_site_occupancy
  F   F1        1.0  0.5980463624000549  0.39084896445274353  0.6213068962097168  1.0000
  K   K1        1.0  0.6176182031631469  0.4110027551651001  0.10337240993976593  1.0000
  F   F2        1.0  0.11824584752321238  0.9116628766059875  0.6002684831619263  1.0000
  F   F3        1.0  0.5985897779464722  0.9306574463844299  0.6207475066184998  1.0000
  F   F4        1.0  0.13777096569538116  0.39080104231834406  0.08151947706937793  1.0000
  F   F5        1.0  0.13686831295490265  0.931287944316864  0.08244364708662033  1.0000
  Ru  Ru1       1.0  0.3678712546825409  0.16149495542049408  0.8518721461296082  1.0000
  Ag  Ag1       1.0  0.8667482137680053  0.6614106297492981  0.35265323519706726  1.0000
  F   F6        1.0  0.13707503676414487  0.390796959400177  0.6211977005004883  1.0000
  F   F7        1.0  0.5969700217247009  0.932782471179962  0.08147834986448288  1.0000
