data_image0
_chemical_formula_structural       CaK2Cl4CaCl2
_chemical_formula_sum              "Ca2 K2 Cl6"
_cell_length_a       7.581287485478206
_cell_length_b       7.572948264824894
_cell_length_c       7.577352046966553
_cell_angle_alpha    60.10561031058897
_cell_angle_beta     60.0731275057026
_cell_angle_gamma    60.16340084118421

_space_group_name_H-M_alt    "P 1"
_space_group_IT_number       1

loop_
  _space_group_symop_operation_xyz
  'x, y, z'

loop_
  _atom_site_type_symbol
  _atom_site_label
  _atom_site_symmetry_multiplicity
  _atom_site_fract_x
  _atom_site_fract_y
  _atom_site_fract_z
  _atom_site_occupancy
  Ca  Ca1       1.0  0.12087408453226091  0.13714368641376495  0.15254633128643033  1.0000
  K   K1        1.0  0.3707149624824524  0.38761013746261597  0.4022435843944549  1.0000
  K   K2        1.0  0.8705772757530214  0.8870709538459778  0.9038515090942382  1.0000
  Cl  Cl1       1.0  0.8712118864059449  0.88730788230896  0.40283635258674616  1.0000
  Cl  Cl2       1.0  0.8707798123359681  0.3877421021461487  0.40208625793457026  1.0000
  Cl  Cl3       1.0  0.371250569820404  0.8876326680183411  0.4019024968147277  1.0000
  Cl  Cl4       1.0  0.3710395395755767  0.8866034150123596  0.9028500914573668  1.0000
  Ca  Ca2       1.0  0.6215986609458923  0.6379668712615967  0.6518683433532714  1.0000
  Cl  Cl5       1.0  0.8700064420700074  0.38767245411872864  0.9027627110481261  1.0000
  Cl  Cl6       1.0  0.37090322375297546  0.3871755003929138  0.9027509689331054  1.0000
