data_image0
_chemical_formula_structural       KBrCaH
_chemical_formula_sum              "K1 Br1 Ca1 H1"
_cell_length_a       4.266150433521464
_cell_length_b       4.268850302721302
_cell_length_c       6.413848400115967
_cell_angle_alpha    89.97360382258171
_cell_angle_beta     90.31697792158056
_cell_angle_gamma    90.03773246916678

_space_group_name_H-M_alt    "P 1"
_space_group_IT_number       1

loop_
  _space_group_symop_operation_xyz
  'x, y, z'

loop_
  _atom_site_type_symbol
  _atom_site_label
  _atom_site_symmetry_multiplicity
  _atom_site_fract_x
  _atom_site_fract_y
  _atom_site_fract_z
  _atom_site_occupancy
  K   K1        1.0  0.654759407043457  0.020996835082769394  0.48296388983726496  1.0000
  Br  Br1       1.0  0.6533434987068176  0.02074051648378372  0.9836336970329284  1.0000
  Ca  Ca1       1.0  0.15523529052734375  0.5225560665130615  0.9809611439704894  1.0000
  H   H1        1.0  0.15332245826721191  0.5187188386917113  0.4867428839206695  1.0000
