data_image0
_chemical_formula_structural       O2EuBO4EuZrOZrKO2
_chemical_formula_sum              "O9 Eu2 B1 Zr2 K1"
_cell_length_a       3.4856402690993726
_cell_length_b       6.155233784014637
_cell_length_c       10.447325706481934
_cell_angle_alpha    79.1252954838803
_cell_angle_beta     89.78086955285579
_cell_angle_gamma    89.38339349758196

_space_group_name_H-M_alt    "P 1"
_space_group_IT_number       1

loop_
  _space_group_symop_operation_xyz
  'x, y, z'

loop_
  _atom_site_type_symbol
  _atom_site_label
  _atom_site_symmetry_multiplicity
  _atom_site_fract_x
  _atom_site_fract_y
  _atom_site_fract_z
  _atom_site_occupancy
  O   O1        1.0  0.7752276062965393  0.9746110439300538  0.5440391898155212  1.0000
  O   O2        1.0  0.7666109800338745  0.7352232336997986  0.06341370940208434  1.0000
  Eu  Eu1       1.0  0.7677984237670898  0.127500981092453  0.07403116673231125  1.0000
  B   B1        1.0  0.7687792778015137  0.8905276656150819  0.427360862493515  1.0000
  O   O3        1.0  0.7704011797904968  0.02628019079566002  0.30639609694480896  1.0000
  O   O4        1.0  0.2669009268283844  0.3500934839248657  0.10536844283342361  1.0000
  O   O5        1.0  0.7672626972198486  0.454095333814621  0.8801814913749695  1.0000
  O   O6        1.0  0.2683045268058777  0.3852236866950989  0.6601608991622925  1.0000
  Eu  Eu2       1.0  0.7698686122894287  0.10341455787420273  0.7556855678558351  1.0000
  Zr  Zr1       1.0  0.26648321747779846  0.6497516632080078  0.9684235453605652  1.0000
  O   O7        1.0  0.7616972327232361  0.6611983776092529  0.45584675669670105  1.0000
  Zr  Zr2       1.0  0.7682498097419739  0.6185910701751709  0.6724885106086731  1.0000
  K   K1        1.0  0.2681277394294739  0.36832907795906067  0.37168985605239874  1.0000
  O   O8        1.0  0.2684231400489807  0.027841612696647648  0.9351356029510498  1.0000
  O   O9        1.0  0.2684091329574585  0.780823588371277  0.7544614672660827  1.0000
