# generated using pymatgen
data_KLiHO4
_symmetry_space_group_name_H-M   'P 1'
_cell_length_a   3.24096098
_cell_length_b   5.15690127
_cell_length_c   5.38756357
_cell_angle_alpha   84.40875112
_cell_angle_beta   72.43656374
_cell_angle_gamma   86.78130636
_symmetry_Int_Tables_number   1
_chemical_formula_structural   KLiHO4
_chemical_formula_sum   'K1 Li1 H1 O4'
_cell_volume   85.40412378
_cell_formula_units_Z   1
loop_
 _symmetry_equiv_pos_site_id
 _symmetry_equiv_pos_as_xyz
  1  'x, y, z'
loop_
 _atom_site_type_symbol
 _atom_site_label
 _atom_site_symmetry_multiplicity
 _atom_site_fract_x
 _atom_site_fract_y
 _atom_site_fract_z
 _atom_site_occupancy
  K  K0  1  0.39327151  0.90154117  0.14791212  1
  Li  Li1  1  0.11707118  0.35040623  0.67781338  1
  H  H2  1  0.43436114  0.91943441  0.66062981  1
  O  O3  1  0.71674469  0.49766129  0.46516438  1
  O  O4  1  0.95138431  0.48999062  0.02465530  1
  O  O5  1  0.13736162  -0.01083765  0.70060369  1
  O  O6  1  0.83649226  0.34254996  0.25681255  1
