data_image0
_chemical_formula_structural       OLuOLuOLuOLuO5Lu2KLuO
_chemical_formula_sum              "O10 Lu7 K1"
_cell_length_a       3.336995400812297
_cell_length_b       9.245142285945999
_cell_length_c       9.286752700805664
_cell_angle_alpha    102.11236620200788
_cell_angle_beta     89.62601550851511
_cell_angle_gamma    89.93277978875206

_space_group_name_H-M_alt    "P 1"
_space_group_IT_number       1

loop_
  _space_group_symop_operation_xyz
  'x, y, z'

loop_
  _atom_site_type_symbol
  _atom_site_label
  _atom_site_symmetry_multiplicity
  _atom_site_fract_x
  _atom_site_fract_y
  _atom_site_fract_z
  _atom_site_occupancy
  O   O1        1.0  0.5246390104293823  0.9159170389175414  0.4135388731956482  1.0000
  Lu  Lu1       1.0  0.021803591400384903  0.7968021631240844  0.4610786736011505  1.0000
  O   O2        1.0  0.0232165064662695  0.7597672343254088  0.6724997162818909  1.0000
  Lu  Lu2       1.0  0.01818174123764038  0.47642350196838373  0.28758105635643005  1.0000
  O   O3        1.0  0.022295160219073296  0.6903867721557617  0.2073448896408081  1.0000
  Lu  Lu3       1.0  0.027183061465620998  0.9086543917655944  0.8780608177185059  1.0000
  O   O4        1.0  0.021505786105990417  0.4517271518707275  0.7248200178146361  1.0000
  Lu  Lu4       1.0  0.5202934145927429  0.17468857765197754  0.12347375601530075  1.0000
  O   O5        1.0  0.5195848345756531  0.4173790216445923  0.08553276211023329  1.0000
  O   O6        1.0  0.028999280184507373  0.9789561629295349  0.11712730675935745  1.0000
  O   O7        1.0  0.5289316773414612  0.054697111248970025  0.8857028484344482  1.0000
  O   O8        1.0  0.01753294095396996  0.2547662854194641  0.2912295460700989  1.0000
  O   O9        1.0  0.5209555625915527  0.7096042037010192  0.9307846426963806  1.0000
  Lu  Lu5       1.0  0.02207964099943638  0.5309900045394897  0.970456600189209  1.0000
  Lu  Lu6       1.0  0.5243078470230103  0.8330556750297546  0.17042374610900876  1.0000
  K   K1        1.0  0.5247982144355774  0.22458918392658236  0.5452573299407959  1.0000
  Lu  Lu7       1.0  0.5218145251274109  0.59921795129776  0.6798877120018005  1.0000
  O   O10       1.0  0.5196539759635925  0.5879074335098265  0.43400177359580994  1.0000
