# generated using pymatgen
data_KPrCl3
_symmetry_space_group_name_H-M   'P 1'
_cell_length_a   4.05291371
_cell_length_b   8.19378622
_cell_length_c   9.25940257
_cell_angle_alpha   89.90432559
_cell_angle_beta   102.65022095
_cell_angle_gamma   89.97919020
_symmetry_Int_Tables_number   1
_chemical_formula_structural   KPrCl3
_chemical_formula_sum   'K2 Pr2 Cl6'
_cell_volume   300.02796641
_cell_formula_units_Z   2
loop_
 _symmetry_equiv_pos_site_id
 _symmetry_equiv_pos_as_xyz
  1  'x, y, z'
loop_
 _atom_site_type_symbol
 _atom_site_label
 _atom_site_symmetry_multiplicity
 _atom_site_fract_x
 _atom_site_fract_y
 _atom_site_fract_z
 _atom_site_occupancy
  K  K0  1  0.31072634  0.47060991  0.97049884  1
  K  K1  1  0.55748909  0.43024890  0.46333796  1
  Pr  Pr2  1  0.65642165  0.96326199  0.66172888  1
  Pr  Pr3  1  0.95549728  0.88597087  0.26008653  1
  Cl  Cl4  1  0.40370569  0.11669113  0.15659891  1
  Cl  Cl5  1  0.94114038  0.54693694  0.23075641  1
  Cl  Cl6  1  0.79498931  0.80385176  0.93693941  1
  Cl  Cl7  1  0.06906891  0.13141413  0.48710422  1
  Cl  Cl8  1  0.11705879  0.72091959  0.58307760  1
  Cl  Cl9  1  0.71688795  0.27534705  0.78310640  1
