data_image0
_chemical_formula_structural       KOKORuO4RuO2
_chemical_formula_sum              "K2 O8 Ru2"
_cell_length_a       3.964752345472991
_cell_length_b       5.816628627848249
_cell_length_c       7.621890068054199
_cell_angle_alpha    101.05464293914565
_cell_angle_beta     105.61968116281858
_cell_angle_gamma    89.80346391507966

_space_group_name_H-M_alt    "P 1"
_space_group_IT_number       1

loop_
  _space_group_symop_operation_xyz
  'x, y, z'

loop_
  _atom_site_type_symbol
  _atom_site_label
  _atom_site_symmetry_multiplicity
  _atom_site_fract_x
  _atom_site_fract_y
  _atom_site_fract_z
  _atom_site_occupancy
  K   K1        1.0  0.6926059126853943  0.2797572612762451  0.34476137161254883  1.0000
  O   O1        1.0  0.2611621916294098  0.5882185101509094  0.47971251606941223  1.0000
  K   K2        1.0  0.45794200897216797  0.654306948184967  0.8737034797668457  1.0000
  O   O2        1.0  0.8904466032981873  0.34901782870292664  0.7314601540565491  1.0000
  Ru  Ru1       1.0  0.967929482460022  0.1621246486902237  0.904970645904541  1.0000
  O   O3        1.0  0.07082320004701613  0.971090018749237  0.10408081859350202  1.0000
  O   O4        1.0  0.8874623775482178  0.9047410488128662  0.7321125268936157  1.0000
  O   O5        1.0  0.07074030488729477  0.47052526473999023  0.10768849402666092  1.0000
  O   O6        1.0  0.2614443898200989  0.03468332439661026  0.4797671139240265  1.0000
  Ru  Ru2       1.0  0.17630994319915771  0.7663506269454956  0.3122510612010956  1.0000
  O   O7        1.0  0.4834771752357483  0.17655332386493683  0.9241931438446045  1.0000
  O   O8        1.0  0.661811113357544  0.7623895406723021  0.28570878505706787  1.0000
