data_image0
_chemical_formula_structural       ClHgClTlClK
_chemical_formula_sum              "Cl3 Hg1 Tl1 K1"
_cell_length_a       4.409226822194593
_cell_length_b       4.370601375352147
_cell_length_c       11.059274673461914
_cell_angle_alpha    89.92711754642488
_cell_angle_beta     89.82155015772544
_cell_angle_gamma    59.631477826334766

_space_group_name_H-M_alt    "P 1"
_space_group_IT_number       1

loop_
  _space_group_symop_operation_xyz
  'x, y, z'

loop_
  _atom_site_type_symbol
  _atom_site_label
  _atom_site_symmetry_multiplicity
  _atom_site_fract_x
  _atom_site_fract_y
  _atom_site_fract_z
  _atom_site_occupancy
  Cl  Cl1       1.0  0.9868285655975342  0.21998757123947146  0.3122890293598175  1.0000
  Hg  Hg1       1.0  0.32064998149871826  0.5551489591598511  0.16361498832702637  1.0000
  Cl  Cl2       1.0  0.3199282586574555  0.556147038936615  0.6678892374038696  1.0000
  Tl  Tl1       1.0  0.6525686383247374  0.8892620801925659  0.4965548813343048  1.0000
  Cl  Cl3       1.0  0.6501041054725646  0.8918073177337646  0.015739094465970993  1.0000
  K   K1        1.0  0.9852167367935181  0.22402361035346988  0.8400982618331909  1.0000
