data_image0
_chemical_formula_structural       BrI2La2I2
_chemical_formula_sum              "Br1 I4 La2"
_cell_length_a       4.4762543881081225
_cell_length_b       4.479901233016148
_cell_length_c       19.422658920288086
_cell_angle_alpha    90.25743235023141
_cell_angle_beta     90.49394814000651
_cell_angle_gamma    120.51636596882862

_space_group_name_H-M_alt    "P 1"
_space_group_IT_number       1

loop_
  _space_group_symop_operation_xyz
  'x, y, z'

loop_
  _atom_site_type_symbol
  _atom_site_label
  _atom_site_symmetry_multiplicity
  _atom_site_fract_x
  _atom_site_fract_y
  _atom_site_fract_z
  _atom_site_occupancy
  Br  Br1       1.0  0.010366972535848618  0.03483090549707413  0.7502477765083313  1.0000
  I   I1        1.0  0.010353722609579563  0.04020987078547478  0.15120144188404083  1.0000
  I   I2        1.0  0.6795984506607056  0.3746371865272522  0.5635099411010742  1.0000
  La  La1       1.0  0.01042034663259983  0.04066024720668793  0.468356192111969  1.0000
  La  La2       1.0  0.6770654320716858  0.3693470954895019  0.05414280667901039  1.0000
  I   I3        1.0  0.33894971013069153  0.7068551182746887  0.3640584349632263  1.0000
  I   I4        1.0  0.3426034748554229  0.7015156745910643  0.9529628753662109  1.0000
