# generated using pymatgen
data_La2ZnGa3
_symmetry_space_group_name_H-M   'P 1'
_cell_length_a   4.48377960
_cell_length_b   4.21141683
_cell_length_c   8.25155346
_cell_angle_alpha   104.72740549
_cell_angle_beta   105.74552568
_cell_angle_gamma   90.07472635
_symmetry_Int_Tables_number   1
_chemical_formula_structural   La2ZnGa3
_chemical_formula_sum   'La2 Zn1 Ga3'
_cell_volume   144.62678463
_cell_formula_units_Z   1
loop_
 _symmetry_equiv_pos_site_id
 _symmetry_equiv_pos_as_xyz
  1  'x, y, z'
loop_
 _atom_site_type_symbol
 _atom_site_label
 _atom_site_symmetry_multiplicity
 _atom_site_fract_x
 _atom_site_fract_y
 _atom_site_fract_z
 _atom_site_occupancy
  La  La0  1  0.87718655  0.14944560  0.11412481  1
  La  La1  1  0.11502166  0.88767348  0.59041302  1
  Zn  Zn2  1  0.28657392  0.55866646  0.93302934  1
  Ga  Ga3  1  0.70625053  0.47753363  0.77273457  1
  Ga  Ga4  1  0.45211213  0.72427744  0.26377669  1
  Ga  Ga5  1  0.53900557  0.31213506  0.43974912  1
