# generated using pymatgen
data_La3AsPdSe2O
_symmetry_space_group_name_H-M   'P 1'
_cell_length_a   4.31271303
_cell_length_b   6.29521977
_cell_length_c   8.21525643
_cell_angle_alpha   109.26275917
_cell_angle_beta   90.02815168
_cell_angle_gamma   89.99423912
_symmetry_Int_Tables_number   1
_chemical_formula_structural   La3AsPdSe2O
_chemical_formula_sum   'La3 As1 Pd1 Se2 O1'
_cell_volume   210.55312381
_cell_formula_units_Z   1
loop_
 _symmetry_equiv_pos_site_id
 _symmetry_equiv_pos_as_xyz
  1  'x, y, z'
loop_
 _atom_site_type_symbol
 _atom_site_label
 _atom_site_symmetry_multiplicity
 _atom_site_fract_x
 _atom_site_fract_y
 _atom_site_fract_z
 _atom_site_occupancy
  La  La0  1  0.21727022  0.46379104  0.60909658  1
  La  La1  1  0.21703821  0.34276652  0.05432703  1
  La  La2  1  0.71747981  0.83098206  0.31526684  1
  As  As3  1  0.71689957  0.32593856  0.32191041  1
  Pd  Pd4  1  0.71739328  0.18102723  0.73454102  1
  Se  Se5  1  0.71707293  0.59975682  0.89370934  1
  Se  Se6  1  0.21684409  0.96347831  0.64041787  1
  O  O7  1  0.21726623  0.69834160  0.21957121  1
