# generated using pymatgen
data_La3Y
_symmetry_space_group_name_H-M   'P 1'
_cell_length_a   5.23169545
_cell_length_b   5.23017866
_cell_length_c   5.23369784
_cell_angle_alpha   90.02404354
_cell_angle_beta   90.00021029
_cell_angle_gamma   90.06567617
_symmetry_Int_Tables_number   1
_chemical_formula_structural   La3Y
_chemical_formula_sum   'La3 Y1'
_cell_volume   143.20800713
_cell_formula_units_Z   1
loop_
 _symmetry_equiv_pos_site_id
 _symmetry_equiv_pos_as_xyz
  1  'x, y, z'
loop_
 _atom_site_type_symbol
 _atom_site_label
 _atom_site_symmetry_multiplicity
 _atom_site_fract_x
 _atom_site_fract_y
 _atom_site_fract_z
 _atom_site_occupancy
  La  La0  1  0.00124828  0.15137383  0.30308174  1
  La  La1  1  0.50080030  0.15132131  0.80307825  1
  La  La2  1  0.50105956  0.65165605  0.30373005  1
  Y  Y3  1  0.00065087  0.65128168  0.80318709  1
