data_image0
_chemical_formula_structural       LaAs2LaAsLaGaAs2LaAs2
_chemical_formula_sum              "La4 As7 Ga1"
_cell_length_a       3.9135937196930817
_cell_length_b       6.884820221281987
_cell_length_c       10.854097366333008
_cell_angle_alpha    89.2059656883627
_cell_angle_beta     89.92572419382482
_cell_angle_gamma    89.89260460157067

_space_group_name_H-M_alt    "P 1"
_space_group_IT_number       1

loop_
  _space_group_symop_operation_xyz
  'x, y, z'

loop_
  _atom_site_type_symbol
  _atom_site_label
  _atom_site_symmetry_multiplicity
  _atom_site_fract_x
  _atom_site_fract_y
  _atom_site_fract_z
  _atom_site_occupancy
  La  La1       1.0  0.4619878232479096  0.4642559289932251  0.04515088349580765  1.0000
  As  As1       1.0  0.4626083672046662  0.9115083813667298  0.010809136554598808  1.0000
  As  As2       1.0  0.9621571302413942  0.6037656664848329  0.25412654876708984  1.0000
  La  La2       1.0  0.9627015590667726  0.046775262802839286  0.8057652711868286  1.0000
  As  As3       1.0  0.4612708687782288  0.38597285747528076  0.34015700221061707  1.0000
  La  La3       1.0  0.9608612656593324  0.5185748934745789  0.5469211935997009  1.0000
  Ga  Ga1       1.0  0.4621682465076447  0.8643087148666383  0.6001219749450684  1.0000
  As  As4       1.0  0.9621281623840333  0.600866734981537  0.8396459817886353  1.0000
  As  As5       1.0  0.9609220027923585  0.06080824509263039  0.511591374874115  1.0000
  La  La4       1.0  0.46200203895568853  0.9431476593017578  0.29854220151901245  1.0000
  As  As6       1.0  0.46218699216842657  0.3803554773330689  0.7538073062896729  1.0000
  As  As7       1.0  0.9622908830642701  0.12473477423191072  0.09945528209209442  1.0000
