data_image0
_chemical_formula_structural       Au2LaAu2La
_chemical_formula_sum              "Au4 La2"
_cell_length_a       4.815340811756044
_cell_length_b       3.73920320096908
_cell_length_c       8.335773468017578
_cell_angle_alpha    90.0842187307606
_cell_angle_beta     90.01998080979311
_cell_angle_gamma    90.07579028142149

_space_group_name_H-M_alt    "P 1"
_space_group_IT_number       1

loop_
  _space_group_symop_operation_xyz
  'x, y, z'

loop_
  _atom_site_type_symbol
  _atom_site_label
  _atom_site_symmetry_multiplicity
  _atom_site_fract_x
  _atom_site_fract_y
  _atom_site_fract_z
  _atom_site_occupancy
  Au  Au1       1.0  0.3806089758872986  0.29697644710540766  0.5299422740936279  1.0000
  Au  Au2       1.0  0.8797258734703064  0.2981510758399963  0.02981778234243393  1.0000
  La  La1       1.0  0.379293829202652  0.7975617051124573  0.8633646368980408  1.0000
  Au  Au3       1.0  0.37984293699264526  0.2968250215053558  0.19618459045886993  1.0000
  Au  Au4       1.0  0.8798608779907227  0.30146458745002747  0.6949312686920166  1.0000
  La  La2       1.0  0.8807578086853027  0.7987168431282042  0.3621636629104614  1.0000
