# generated using pymatgen
data_LaCd3
_symmetry_space_group_name_H-M   'P 1'
_cell_length_a   5.25841124
_cell_length_b   5.26056351
_cell_length_c   5.26332901
_cell_angle_alpha   60.01375108
_cell_angle_beta   60.02324541
_cell_angle_gamma   60.04935481
_symmetry_Int_Tables_number   1
_chemical_formula_structural   LaCd3
_chemical_formula_sum   'La1 Cd3'
_cell_volume   103.01857142
_cell_formula_units_Z   1
loop_
 _symmetry_equiv_pos_site_id
 _symmetry_equiv_pos_as_xyz
  1  'x, y, z'
loop_
 _atom_site_type_symbol
 _atom_site_label
 _atom_site_symmetry_multiplicity
 _atom_site_fract_x
 _atom_site_fract_y
 _atom_site_fract_z
 _atom_site_occupancy
  La  La0  1  0.71225304  0.08577816  0.91478026  1
  Cd  Cd1  1  0.21249224  0.58580510  0.41438121  1
  Cd  Cd2  1  0.96230100  0.33592718  0.16515138  1
  Cd  Cd3  1  0.46234576  0.83550539  0.66439138  1
