data_image0
_chemical_formula_structural       La3Si2CoSiCoLaCo2Si
_chemical_formula_sum              "La4 Si4 Co4"
_cell_length_a       6.898102474802621
_cell_length_b       4.2787976640893275
_cell_length_c       7.969015121459961
_cell_angle_alpha    90.11815112565893
_cell_angle_beta     90.30308534862431
_cell_angle_gamma    90.15525955551708

_space_group_name_H-M_alt    "P 1"
_space_group_IT_number       1

loop_
  _space_group_symop_operation_xyz
  'x, y, z'

loop_
  _atom_site_type_symbol
  _atom_site_label
  _atom_site_symmetry_multiplicity
  _atom_site_fract_x
  _atom_site_fract_y
  _atom_site_fract_z
  _atom_site_occupancy
  La  La1       1.0  0.3941931426525116  0.9457603096961975  0.005161762237548828  1.0000
  La  La2       1.0  0.3949156105518341  0.9440063238143921  0.5105059146881104  1.0000
  La  La3       1.0  0.8960046768188477  0.9470301270484923  0.7593574523925781  1.0000
  Si  Si1       1.0  0.056192465126514435  0.4465799927711487  0.5083928108215332  1.0000
  Si  Si2       1.0  0.5584716796875  0.4427538514137268  0.7563807368278503  1.0000
  Co  Co1       1.0  0.7266348600387573  0.4439520537853241  0.506202220916748  1.0000
  Si  Si3       1.0  0.5615163445472717  0.44244751334190363  0.2578168511390686  1.0000
  Co  Co2       1.0  0.22394248843193054  0.43954795598983765  0.7563126683235168  1.0000
  La  La4       1.0  0.8949440717697144  0.9447466135025023  0.26001349091529846  1.0000
  Co  Co3       1.0  0.2278788983821869  0.4424065947532653  0.2549784779548645  1.0000
  Co  Co4       1.0  0.7301766872406006  0.44506660103797907  0.006201888434588909  1.0000
  Si  Si4       1.0  0.05738045275211334  0.4415111541748047  0.008863143622875214  1.0000
