data_image0
_chemical_formula_structural       LaPd2Mg
_chemical_formula_sum              "La1 Pd2 Mg1"
_cell_length_a       4.954162696754965
_cell_length_b       4.954657944379328
_cell_length_c       4.955329418182373
_cell_angle_alpha    59.904413521159846
_cell_angle_beta     59.85752617969637
_cell_angle_gamma    59.85683001270151

_space_group_name_H-M_alt    "P 1"
_space_group_IT_number       1

loop_
  _space_group_symop_operation_xyz
  'x, y, z'

loop_
  _atom_site_type_symbol
  _atom_site_label
  _atom_site_symmetry_multiplicity
  _atom_site_fract_x
  _atom_site_fract_y
  _atom_site_fract_z
  _atom_site_occupancy
  La  La1       1.0  0.14839772880077362  0.7280083894729614  0.23484909534454346  1.0000
  Pd  Pd1       1.0  0.3977863192558288  0.9792943596839905  0.4839802384376526  1.0000
  Pd  Pd2       1.0  0.8991961479187013  0.47863906621932983  0.9850373864173889  1.0000
  Mg  Mg1       1.0  0.6473245024681091  0.22781987488269806  0.7344093918800354  1.0000
