data_image0
_chemical_formula_structural       O3LaOLa
_chemical_formula_sum              "O4 La2"
_cell_length_a       3.999240163778016
_cell_length_b       3.9943047842904433
_cell_length_c       5.683541774749756
_cell_angle_alpha    90.34261846498802
_cell_angle_beta     90.33224338048933
_cell_angle_gamma    89.94781302785209

_space_group_name_H-M_alt    "P 1"
_space_group_IT_number       1

loop_
  _space_group_symop_operation_xyz
  'x, y, z'

loop_
  _atom_site_type_symbol
  _atom_site_label
  _atom_site_symmetry_multiplicity
  _atom_site_fract_x
  _atom_site_fract_y
  _atom_site_fract_z
  _atom_site_occupancy
  O   O1        1.0  0.3495534658432007  0.9413844943046569  0.2609814703464508  1.0000
  O   O2        1.0  0.8497468829154968  0.44132483005523676  0.7627736926078796  1.0000
  O   O3        1.0  0.34972769021987915  0.9404759407043456  0.7607547044754028  1.0000
  La  La1       1.0  0.3501645624637604  0.44134926795959467  0.5121921300888062  1.0000
  O   O4        1.0  0.8501714468002319  0.4402121603488922  0.2621287703514099  1.0000
  La  La2       1.0  0.8500123023986816  0.9405987262725829  0.011073606088757515  1.0000
