data_image0
_chemical_formula_structural       PrOLaAl2O2PrOPrO2AlOAlO5
_chemical_formula_sum              "Pr3 O12 La1 Al4"
_cell_length_a       5.303384990471627
_cell_length_b       7.0990946961234185
_cell_length_c       7.122097969055176
_cell_angle_alpha    83.8217074478575
_cell_angle_beta     90.01610809166483
_cell_angle_gamma    90.21778992419694

_space_group_name_H-M_alt    "P 1"
_space_group_IT_number       1

loop_
  _space_group_symop_operation_xyz
  'x, y, z'

loop_
  _atom_site_type_symbol
  _atom_site_label
  _atom_site_symmetry_multiplicity
  _atom_site_fract_x
  _atom_site_fract_y
  _atom_site_fract_z
  _atom_site_occupancy
  Pr  Pr1       1.0  0.09909173846244812  0.9431251883506776  0.3810016512870788  1.0000
  O   O1        1.0  0.6000530123710632  0.1366999000310898  0.9858182668685912  1.0000
  La  La1       1.0  0.6000173687934875  0.7891647219657898  0.05623453110456468  1.0000
  Al  Al1       1.0  0.09886692464351654  0.4266447722911835  0.2770474851131439  1.0000
  Al  Al2       1.0  0.5998088121414185  0.7451146245002748  0.5977654457092285  1.0000
  O   O2        1.0  0.09946147352457047  0.5953011512756349  0.44548094272613514  1.0000
  O   O3        1.0  0.09540761262178421  0.21364766359329226  0.740242302417755  1.0000
  Pr  Pr2       1.0  0.09967038780450821  0.5243666172027588  0.7903417944908141  1.0000
  O   O4        1.0  0.34844303131103516  0.8630515933036804  0.7157424092292785  1.0000
  Pr  Pr3       1.0  0.5986204147338867  0.1997080743312836  0.638015627861023  1.0000
  O   O5        1.0  0.8482447862625122  0.8611782789230348  0.7193018794059752  1.0000
  O   O6        1.0  0.8517476916313171  0.4987248778343201  0.0824134573340416  1.0000
  Al  Al3       1.0  0.09773020446300507  0.9810960292816163  0.8340185284614562  1.0000
  O   O7        1.0  0.6006349921226501  0.8364959359169007  0.36417669057846064  1.0000
  Al  Al4       1.0  0.5993524193763733  0.3060080111026764  0.15599463880062103  1.0000
  O   O8        1.0  0.5980425477027893  0.5098749399185181  0.6810293793678284  1.0000
  O   O9        1.0  0.1018337681889534  0.8992028832435609  0.07110811024904251  1.0000
  O   O10       1.0  0.3489554524421692  0.49840053915977484  0.08473560214042664  1.0000
  O   O11       1.0  0.348773330450058  0.2323972284793854  0.34874826669692993  1.0000
  O   O12       1.0  0.8476148843765259  0.23520055413246158  0.34815284609794617  1.0000
