data_image0
_chemical_formula_structural       InLaHgPr
_chemical_formula_sum              "In1 La1 Hg1 Pr1"
_cell_length_a       4.634149115231067
_cell_length_b       4.733478721979334
_cell_length_c       6.236287593841553
_cell_angle_alpha    112.35809986081102
_cell_angle_beta     112.21201521354816
_cell_angle_gamma    90.05019733574203

_space_group_name_H-M_alt    "P 1"
_space_group_IT_number       1

loop_
  _space_group_symop_operation_xyz
  'x, y, z'

loop_
  _atom_site_type_symbol
  _atom_site_label
  _atom_site_symmetry_multiplicity
  _atom_site_fract_x
  _atom_site_fract_y
  _atom_site_fract_z
  _atom_site_occupancy
  In  In1       1.0  0.24180427193641663  0.7960996627807617  0.4217528700828552  1.0000
  La  La1       1.0  0.9970324039459229  0.047583743929862976  0.9259440302848816  1.0000
  Hg  Hg1       1.0  0.5023778080940247  0.5526695251464844  0.93694007396698  1.0000
  Pr  Pr1       1.0  0.7481890320777893  0.3011649250984192  0.43390896916389465  1.0000
