data_image0
_chemical_formula_structural       LiCaHgLi
_chemical_formula_sum              "Li2 Ca1 Hg1"
_cell_length_a       4.860990212450881
_cell_length_b       4.871384100779884
_cell_length_c       4.861460208892822
_cell_angle_alpha    60.180161883702844
_cell_angle_beta     60.287228329632136
_cell_angle_gamma    60.322333535328475

_space_group_name_H-M_alt    "P 1"
_space_group_IT_number       1

loop_
  _space_group_symop_operation_xyz
  'x, y, z'

loop_
  _atom_site_type_symbol
  _atom_site_label
  _atom_site_symmetry_multiplicity
  _atom_site_fract_x
  _atom_site_fract_y
  _atom_site_fract_z
  _atom_site_occupancy
  Li  Li1       1.0  0.49984341859817505  0.3235446810722351  0.9989851713180542  1.0000
  Ca  Ca1       1.0  0.7494120001792908  0.5748008489608765  0.24928605556488037  1.0000
  Hg  Hg1       1.0  0.2502829432487488  0.07540549337863922  0.7492967247962952  1.0000
  Li  Li2       1.0  0.0002626595087349415  0.8256338238716125  0.49807190895080566  1.0000
