# generated using pymatgen
data_Li2CePb
_symmetry_space_group_name_H-M   'P 1'
_cell_length_a   5.21907250
_cell_length_b   5.21983603
_cell_length_c   5.22200561
_cell_angle_alpha   59.95850769
_cell_angle_beta   59.93168745
_cell_angle_gamma   59.98685813
_symmetry_Int_Tables_number   1
_chemical_formula_structural   Li2CePb
_chemical_formula_sum   'Li2 Ce1 Pb1'
_cell_volume   100.50056436
_cell_formula_units_Z   1
loop_
 _symmetry_equiv_pos_site_id
 _symmetry_equiv_pos_as_xyz
  1  'x, y, z'
loop_
 _atom_site_type_symbol
 _atom_site_label
 _atom_site_symmetry_multiplicity
 _atom_site_fract_x
 _atom_site_fract_y
 _atom_site_fract_z
 _atom_site_occupancy
  Li  Li0  1  0.51934845  0.30936053  0.31980282  1
  Li  Li1  1  0.76944038  0.55859547  0.57044502  1
  Ce  Ce2  1  0.01932335  0.80921245  0.81969822  1
  Pb  Pb3  1  0.26898165  0.05924818  0.06991857  1
