data_image0
_chemical_formula_structural       Li2Lu3TeGe2LuGe
_chemical_formula_sum              "Li2 Lu4 Te1 Ge3"
_cell_length_a       3.858808639400394
_cell_length_b       4.078379956074442
_cell_length_c       13.781790733337402
_cell_angle_alpha    90.25040408400456
_cell_angle_beta     90.3168686521289
_cell_angle_gamma    90.09254473285971

_space_group_name_H-M_alt    "P 1"
_space_group_IT_number       1

loop_
  _space_group_symop_operation_xyz
  'x, y, z'

loop_
  _atom_site_type_symbol
  _atom_site_label
  _atom_site_symmetry_multiplicity
  _atom_site_fract_x
  _atom_site_fract_y
  _atom_site_fract_z
  _atom_site_occupancy
  Li  Li1       1.0  0.44276484847068787  0.6497683525085449  0.11751717329025269  1.0000
  Li  Li2       1.0  0.4408852458000183  0.1481388807296753  0.8566939830780029  1.0000
  Lu  Lu1       1.0  0.9418398141860962  0.146196186542511  0.21151213347911835  1.0000
  Lu  Lu2       1.0  0.9418787956237793  0.6496855616569519  0.9385455250740051  1.0000
  Lu  Lu3       1.0  0.9431309103965759  0.1444234997034073  0.6981416344642639  1.0000
  Te  Te1       1.0  0.44129252433776855  0.6454783082008362  0.3039228916168213  1.0000
  Ge  Ge1       1.0  0.4424026310443878  0.6457098722457886  0.7442142963409424  1.0000
  Ge  Ge2       1.0  0.4389437139034271  0.15011624991893768  0.03281727060675621  1.0000
  Lu  Lu4       1.0  0.4404395818710327  0.6411112546920776  0.5275294184684753  1.0000
  Ge  Ge3       1.0  0.938096284866333  0.14081378281116486  0.49334201216697693  1.0000
