# generated using pymatgen
data_Li2PtPb
_symmetry_space_group_name_H-M   'P 1'
_cell_length_a   4.60587887
_cell_length_b   4.60601308
_cell_length_c   4.61132457
_cell_angle_alpha   59.97445255
_cell_angle_beta   59.96276634
_cell_angle_gamma   59.99150749
_symmetry_Int_Tables_number   1
_chemical_formula_structural   Li2PtPb
_chemical_formula_sum   'Li2 Pt1 Pb1'
_cell_volume   69.13759791
_cell_formula_units_Z   1
loop_
 _symmetry_equiv_pos_site_id
 _symmetry_equiv_pos_as_xyz
  1  'x, y, z'
loop_
 _atom_site_type_symbol
 _atom_site_label
 _atom_site_symmetry_multiplicity
 _atom_site_fract_x
 _atom_site_fract_y
 _atom_site_fract_z
 _atom_site_occupancy
  Li  Li0  1  0.98864126  0.86120348  0.78732072  1
  Li  Li1  1  0.73870866  0.61050638  0.53747806  1
  Pt  Pt2  1  0.23951895  0.11115025  0.03662969  1
  Pb  Pb3  1  0.48880109  0.36075346  0.28724601  1
