data_image0
_chemical_formula_structural       Li2Se
_chemical_formula_sum              "Li2 Se1"
_cell_length_a       4.266771863483633
_cell_length_b       4.271649018179197
_cell_length_c       4.268759727478027
_cell_angle_alpha    59.92612079411854
_cell_angle_beta     59.85880200395668
_cell_angle_gamma    59.80253642264349

_space_group_name_H-M_alt    "P 1"
_space_group_IT_number       1

loop_
  _space_group_symop_operation_xyz
  'x, y, z'

loop_
  _atom_site_type_symbol
  _atom_site_label
  _atom_site_symmetry_multiplicity
  _atom_site_fract_x
  _atom_site_fract_y
  _atom_site_fract_z
  _atom_site_occupancy
  Li  Li1       1.0  0.6899520754814148  0.5533609986305238  0.631063163280487  1.0000
  Li  Li2       1.0  0.18629881739616394  0.053696487098932266  0.13303062319755554  1.0000
  Se  Se1       1.0  0.9382665157318115  0.803538203239441  0.8812631964683533  1.0000
