# generated using pymatgen
data_Li2SnGeS4
_symmetry_space_group_name_H-M   'P 1'
_cell_length_a   6.02103418
_cell_length_b   5.12603115
_cell_length_c   6.55997996
_cell_angle_alpha   110.55375456
_cell_angle_beta   106.86295949
_cell_angle_gamma   89.33230555
_symmetry_Int_Tables_number   1
_chemical_formula_structural   Li2SnGeS4
_chemical_formula_sum   'Li2 Sn1 Ge1 S4'
_cell_volume   180.50590565
_cell_formula_units_Z   1
loop_
 _symmetry_equiv_pos_site_id
 _symmetry_equiv_pos_as_xyz
  1  'x, y, z'
loop_
 _atom_site_type_symbol
 _atom_site_label
 _atom_site_symmetry_multiplicity
 _atom_site_fract_x
 _atom_site_fract_y
 _atom_site_fract_z
 _atom_site_occupancy
  Li  Li0  1  0.55136629  0.58178880  0.31120072  1
  Li  Li1  1  0.80556950  0.29222267  0.83679159  1
  Sn  Sn2  1  0.29026504  0.73670109  0.83469909  1
  Ge  Ge3  1  0.05246472  0.07712686  0.32728071  1
  S  S4  1  0.88374353  0.41759728  0.53727440  1
  S  S5  1  0.18408780  0.22282272  0.08760110  1
  S  S6  1  0.37818702  0.97137203  0.56143532  1
  S  S7  1  0.75787092  0.75314575  0.09812040  1
