# generated using pymatgen
data_Li2VF6
_symmetry_space_group_name_H-M   'P 1'
_cell_length_a   5.40526808
_cell_length_b   4.84331258
_cell_length_c   8.77014220
_cell_angle_alpha   85.31429798
_cell_angle_beta   81.80660303
_cell_angle_gamma   71.29562802
_symmetry_Int_Tables_number   1
_chemical_formula_structural   Li2VF6
_chemical_formula_sum   'Li4 V2 F12'
_cell_volume   215.09265914
_cell_formula_units_Z   2
loop_
 _symmetry_equiv_pos_site_id
 _symmetry_equiv_pos_as_xyz
  1  'x, y, z'
loop_
 _atom_site_type_symbol
 _atom_site_label
 _atom_site_symmetry_multiplicity
 _atom_site_fract_x
 _atom_site_fract_y
 _atom_site_fract_z
 _atom_site_occupancy
  Li  Li0  1  0.83944481  0.40762500  0.15332886  1
  Li  Li1  1  0.37113202  0.66079684  1.00330960  1
  Li  Li2  1  0.75157975  0.62856178  0.50840416  1
  Li  Li3  1  0.23037043  0.59678030  0.65061813  1
  V  V4  1  0.82446295  0.10962359  0.77935591  1
  V  V5  1  0.32083197  0.08599009  0.27307884  1
  F  F6  1  1.02306723  0.36600642  0.37842807  1
  F  F7  1  0.58421865  0.79179788  0.15268256  1
  F  F8  1  0.57040118  0.94903156  0.84734561  1
  F  F9  1  0.07311264  0.28581925  0.69864292  1
  F  F10  1  0.22655243  0.34921990  0.09633162  1
  F  F11  1  0.73573026  0.33651265  0.95830156  1
  F  F12  1  0.58468603  0.42338174  0.67106618  1
  F  F13  1  0.55618109  0.26984145  0.29927083  1
  F  F14  1  0.90396906  0.87228087  0.60049812  1
  F  F15  1  0.09295801  0.91609469  0.21545533  1
  F  F16  1  0.10116607  0.80254687  0.85909097  1
  F  F17  1  0.40904011  0.84222976  0.45199255  1
