# generated using pymatgen
data_Li2ZnAg
_symmetry_space_group_name_H-M   'P 1'
_cell_length_a   4.42103053
_cell_length_b   4.42118424
_cell_length_c   4.42078956
_cell_angle_alpha   60.02787141
_cell_angle_beta   60.02779499
_cell_angle_gamma   60.00973073
_symmetry_Int_Tables_number   1
_chemical_formula_structural   Li2ZnAg
_chemical_formula_sum   'Li2 Zn1 Ag1'
_cell_volume   61.13100063
_cell_formula_units_Z   1
loop_
 _symmetry_equiv_pos_site_id
 _symmetry_equiv_pos_as_xyz
  1  'x, y, z'
loop_
 _atom_site_type_symbol
 _atom_site_label
 _atom_site_symmetry_multiplicity
 _atom_site_fract_x
 _atom_site_fract_y
 _atom_site_fract_z
 _atom_site_occupancy
  Li  Li0  1  0.33251605  0.46810304  0.50470446  1
  Li  Li1  1  0.83261653  0.96786184  0.00453325  1
  Zn  Zn2  1  0.08157044  0.21814300  0.25476266  1
  Ag  Ag3  1  0.58245933  0.71794366  0.75474773  1
