# generated using pymatgen
data_Li3Bi
_symmetry_space_group_name_H-M   'P 1'
_cell_length_a   4.76378576
_cell_length_b   4.76400085
_cell_length_c   4.76309277
_cell_angle_alpha   59.99974217
_cell_angle_beta   60.00717669
_cell_angle_gamma   59.99287947
_symmetry_Int_Tables_number   1
_chemical_formula_structural   Li3Bi
_chemical_formula_sum   'Li3 Bi1'
_cell_volume   76.43590610
_cell_formula_units_Z   1
loop_
 _symmetry_equiv_pos_site_id
 _symmetry_equiv_pos_as_xyz
  1  'x, y, z'
loop_
 _atom_site_type_symbol
 _atom_site_label
 _atom_site_symmetry_multiplicity
 _atom_site_fract_x
 _atom_site_fract_y
 _atom_site_fract_z
 _atom_site_occupancy
  Li  Li0  1  0.19912567  0.51083888  0.00534735  1
  Li  Li1  1  0.94893222  0.26021351  0.75562142  1
  Li  Li2  1  0.69869722  0.01080590  0.50560437  1
  Bi  Bi3  1  0.44918310  0.76053626  0.25546890  1
