data_image0
_chemical_formula_structural       CuLiCu2LiOBrLiO3CuO2
_chemical_formula_sum              "Cu4 Li3 O6 Br1"
_cell_length_a       5.519515842746553
_cell_length_b       5.93548606162197
_cell_length_c       6.229213237762451
_cell_angle_alpha    116.91226300382002
_cell_angle_beta     99.68431654799845
_cell_angle_gamma    95.2985627587154

_space_group_name_H-M_alt    "P 1"
_space_group_IT_number       1

loop_
  _space_group_symop_operation_xyz
  'x, y, z'

loop_
  _atom_site_type_symbol
  _atom_site_label
  _atom_site_symmetry_multiplicity
  _atom_site_fract_x
  _atom_site_fract_y
  _atom_site_fract_z
  _atom_site_occupancy
  Cu  Cu1       1.0  0.9404566287994385  0.757794439792633  0.9362595677375795  1.0000
  Li  Li1       1.0  0.45411133766174316  0.16357770562171936  0.8325144052505493  1.0000
  Cu  Cu2       1.0  0.9441173076629639  0.2752050757408142  0.4259622097015381  1.0000
  Cu  Cu3       1.0  0.45857545733451843  0.04332806169986725  0.21175140142440796  1.0000
  Li  Li2       1.0  0.9439521431922913  0.14907987415790558  0.8079167008399963  1.0000
  O   O1        1.0  0.19812420010566711  0.31611111760139465  0.6803907752037048  1.0000
  Br  Br1       1.0  0.19757965207099915  0.6586428284645081  0.3175724744796753  1.0000
  Li  Li3       1.0  0.6972405910491943  0.657855212688446  0.3183603286743164  1.0000
  O   O2        1.0  0.6891881823539734  0.26794734597206116  0.18485452234745026  1.0000
  O   O3        1.0  0.686974823474884  0.5281523466110228  0.9359008073806764  1.0000
  O   O4        1.0  0.7084184885025024  0.7920241951942443  0.7000892758369446  1.0000
  Cu  Cu4       1.0  0.4541083872318268  0.5558031797409058  0.6975246667861938  1.0000
  O   O5        1.0  0.71158766746521  0.04961279779672623  0.4519994854927063  1.0000
  O   O6        1.0  0.20257364213466644  0.9957847595214844  0.9564360976219178  1.0000
