# generated using pymatgen
data_Li3Hg
_symmetry_space_group_name_H-M   'P 1'
_cell_length_a   4.61820226
_cell_length_b   4.61743084
_cell_length_c   4.62257258
_cell_angle_alpha   59.97011662
_cell_angle_beta   59.95932265
_cell_angle_gamma   60.00248948
_symmetry_Int_Tables_number   1
_chemical_formula_structural   Li3Hg
_chemical_formula_sum   'Li3 Hg1'
_cell_volume   69.66561004
_cell_formula_units_Z   1
loop_
 _symmetry_equiv_pos_site_id
 _symmetry_equiv_pos_as_xyz
  1  'x, y, z'
loop_
 _atom_site_type_symbol
 _atom_site_label
 _atom_site_symmetry_multiplicity
 _atom_site_fract_x
 _atom_site_fract_y
 _atom_site_fract_z
 _atom_site_occupancy
  Li  Li0  1  0.32212662  0.61661545  0.13515644  1
  Li  Li1  1  0.07192064  0.36648949  0.88511015  1
  Li  Li2  1  0.57229649  0.86632059  0.38546370  1
  Hg  Hg3  1  0.82208094  0.11653668  0.63522318  1
