data_image0
_chemical_formula_structural       Li4P2Li
_chemical_formula_sum              "Li5 P2"
_cell_length_a       4.1998691763538245
_cell_length_b       4.198866811136948
_cell_length_c       8.743398666381836
_cell_angle_alpha    104.0267937693125
_cell_angle_beta     89.93868789420911
_cell_angle_gamma    120.1329502089553

_space_group_name_H-M_alt    "P 1"
_space_group_IT_number       1

loop_
  _space_group_symop_operation_xyz
  'x, y, z'

loop_
  _atom_site_type_symbol
  _atom_site_label
  _atom_site_symmetry_multiplicity
  _atom_site_fract_x
  _atom_site_fract_y
  _atom_site_fract_z
  _atom_site_occupancy
  Li  Li1       1.0  0.9357978701591492  0.13749383389949799  0.17008459568023682  1.0000
  Li  Li2       1.0  0.536527693271637  0.33782216906547546  0.9686639308929443  1.0000
  Li  Li3       1.0  0.14481543004512787  0.550521969795227  0.7874924540519714  1.0000
  Li  Li4       1.0  0.32829943299293524  0.9244927167892457  0.3534314334392548  1.0000
  P   P1        1.0  0.8339217901229858  0.9308111667633057  0.8578051924705505  1.0000
  P   P2        1.0  0.6376752257347107  0.5442496538162231  0.28197962045669556  1.0000
  Li  Li5       1.0  0.7381606698036194  0.7368410229682922  0.5698308348655701  1.0000
