data_image0
_chemical_formula_structural       AgLi3AgS3Ag2LiS
_chemical_formula_sum              "Ag4 Li4 S4"
_cell_length_a       3.9495368560853064
_cell_length_b       7.675535157816027
_cell_length_c       6.702099323272705
_cell_angle_alpha    89.6304004848313
_cell_angle_beta     89.87216185904832
_cell_angle_gamma    89.98483265414194

_space_group_name_H-M_alt    "P 1"
_space_group_IT_number       1

loop_
  _space_group_symop_operation_xyz
  'x, y, z'

loop_
  _atom_site_type_symbol
  _atom_site_label
  _atom_site_symmetry_multiplicity
  _atom_site_fract_x
  _atom_site_fract_y
  _atom_site_fract_z
  _atom_site_occupancy
  Ag  Ag1       1.0  0.3993898332118988  0.9285650849342346  0.5150937438011169  1.0000
  Li  Li1       1.0  0.39937177300453186  0.15404552221298218  0.8832770586013794  1.0000
  Li  Li2       1.0  0.8990873098373413  0.014691081829369068  0.18589362502098083  1.0000
  Li  Li3       1.0  0.8990095853805542  0.4154004156589508  0.06144363805651665  1.0000
  Ag  Ag2       1.0  0.4000127613544464  0.5084883570671082  0.3892650306224823  1.0000
  S   S1        1.0  0.9009566307067871  0.7023795247077942  0.25661781430244446  1.0000
  S   S2        1.0  0.398013710975647  0.19380636513233185  0.25215986371040344  1.0000
  S   S3        1.0  0.39947426319122314  0.466189980506897  0.8052300810813904  1.0000
  Ag  Ag3       1.0  0.9002934694290161  0.6622415781021118  0.6739793419837952  1.0000
  Ag  Ag4       1.0  0.8998440504074097  0.24866031110286713  0.5612661242485046  1.0000
  Li  Li4       1.0  0.40020912885665894  0.7532938122749329  0.008097706362605095  1.0000
  S   S4        1.0  0.8983226418495178  0.9737658500671388  0.8098412156105042  1.0000
