data_image0
_chemical_formula_structural       F3LiAgF2PtF
_chemical_formula_sum              "F6 Li1 Ag1 Pt1"
_cell_length_a       4.653133339168945
_cell_length_b       5.438860839118163
_cell_length_c       5.4692206382751465
_cell_angle_alpha    119.25608866214715
_cell_angle_beta     89.94264939953062
_cell_angle_gamma    89.85944404866183

_space_group_name_H-M_alt    "P 1"
_space_group_IT_number       1

loop_
  _space_group_symop_operation_xyz
  'x, y, z'

loop_
  _atom_site_type_symbol
  _atom_site_label
  _atom_site_symmetry_multiplicity
  _atom_site_fract_x
  _atom_site_fract_y
  _atom_site_fract_z
  _atom_site_occupancy
  F   F1        1.0  0.7401987314224243  0.46796810626983637  0.24749666452407834  1.0000
  F   F2        1.0  0.7398303747177124  0.802123486995697  0.9375287294387817  1.0000
  F   F3        1.0  0.25120821595191956  0.45936915278434753  0.9399092793464661  1.0000
  Li  Li1       1.0  0.9961208701133729  0.1237323582172394  0.9224642515182495  1.0000
  Ag  Ag1       1.0  0.4969519674777985  0.4582340121269226  0.590844988822937  1.0000
  F   F4        1.0  0.249856173992157  0.10403312742710114  0.2487208694219589  1.0000
  F   F5        1.0  0.2529676556587219  0.7925761938095093  0.5821249485015869  1.0000
  Pt  Pt1       1.0  0.4934837222099305  0.7876443862915039  0.252577006816864  1.0000
  F   F6        1.0  0.7366370558738708  0.10886185616254807  0.5773041248321533  1.0000
