# generated using pymatgen
data_LiAl2Cu
_symmetry_space_group_name_H-M   'P 1'
_cell_length_a   4.34079381
_cell_length_b   4.34031675
_cell_length_c   4.34098398
_cell_angle_alpha   60.02927557
_cell_angle_beta   59.98437160
_cell_angle_gamma   59.99632435
_symmetry_Int_Tables_number   1
_chemical_formula_structural   LiAl2Cu
_chemical_formula_sum   'Li1 Al2 Cu1'
_cell_volume   57.83574724
_cell_formula_units_Z   1
loop_
 _symmetry_equiv_pos_site_id
 _symmetry_equiv_pos_as_xyz
  1  'x, y, z'
loop_
 _atom_site_type_symbol
 _atom_site_label
 _atom_site_symmetry_multiplicity
 _atom_site_fract_x
 _atom_site_fract_y
 _atom_site_fract_z
 _atom_site_occupancy
  Li  Li0  1  0.04424092  0.92077116  0.13320272  1
  Al  Al1  1  0.54402891  0.42088992  0.63368481  1
  Al  Al2  1  0.79447099  0.67066355  0.88321749  1
  Cu  Cu3  1  0.29405965  0.17086666  0.38313550  1
