# generated using pymatgen
data_LiAlIr2
_symmetry_space_group_name_H-M   'P 1'
_cell_length_a   4.19106485
_cell_length_b   4.19159151
_cell_length_c   4.19066693
_cell_angle_alpha   59.99757216
_cell_angle_beta   60.01312629
_cell_angle_gamma   59.97883958
_symmetry_Int_Tables_number   1
_chemical_formula_structural   LiAlIr2
_chemical_formula_sum   'Li1 Al1 Ir2'
_cell_volume   52.05195693
_cell_formula_units_Z   1
loop_
 _symmetry_equiv_pos_site_id
 _symmetry_equiv_pos_as_xyz
  1  'x, y, z'
loop_
 _atom_site_type_symbol
 _atom_site_label
 _atom_site_symmetry_multiplicity
 _atom_site_fract_x
 _atom_site_fract_y
 _atom_site_fract_z
 _atom_site_occupancy
  Li  Li0  1  0.34289329  0.08595336  0.75620850  1
  Al  Al1  1  0.84305656  0.58624754  0.25633011  1
  Ir  Ir2  1  0.59308109  0.33630750  0.00623207  1
  Ir  Ir3  1  0.09296937  0.83608262  0.50641183  1
