data_image0
_chemical_formula_structural       LiAlO2
_chemical_formula_sum              "Li1 Al1 O2"
_cell_length_a       2.8557342612260483
_cell_length_b       2.861446702017446
_cell_length_c       5.057440280914307
_cell_angle_alpha    73.55456528613263
_cell_angle_beta     73.54896523014935
_cell_angle_gamma    59.57289505464904

_space_group_name_H-M_alt    "P 1"
_space_group_IT_number       1

loop_
  _space_group_symop_operation_xyz
  'x, y, z'

loop_
  _atom_site_type_symbol
  _atom_site_label
  _atom_site_symmetry_multiplicity
  _atom_site_fract_x
  _atom_site_fract_y
  _atom_site_fract_z
  _atom_site_occupancy
  Li  Li1       1.0  0.3053845763206482  0.33531126379966736  0.8669053316116334  1.0000
  Al  Al1       1.0  0.8023999333381653  0.8395285010337828  0.3667281270027161  1.0000
  O   O1        1.0  0.5394716262817384  0.5768903493881226  0.1514725238084793  1.0000
  O   O2        1.0  0.06248883157968522  0.09820284694433212  0.5765246748924255  1.0000
