data_image0
_chemical_formula_structural       BeLiH2
_chemical_formula_sum              "Be1 Li1 H2"
_cell_length_a       2.6787839951350554
_cell_length_b       2.6863761398052666
_cell_length_c       3.764606237411499
_cell_angle_alpha    89.3685857046432
_cell_angle_beta     90.20994203990504
_cell_angle_gamma    90.32997580457047

_space_group_name_H-M_alt    "P 1"
_space_group_IT_number       1

loop_
  _space_group_symop_operation_xyz
  'x, y, z'

loop_
  _atom_site_type_symbol
  _atom_site_label
  _atom_site_symmetry_multiplicity
  _atom_site_fract_x
  _atom_site_fract_y
  _atom_site_fract_z
  _atom_site_occupancy
  Be  Be1       1.0  0.5441902875900269  0.7333552837371826  0.7999259829521179  1.0000
  Li  Li1       1.0  0.044983185827732086  0.23391513526439667  0.29906901717185974  1.0000
  H   H1        1.0  0.5448521971702576  0.7355873584747314  0.29809945821762085  1.0000
  H   H2        1.0  0.04593879356980324  0.2346515655517578  0.79803866147995  1.0000
