# generated using pymatgen
data_LiBe2Si2O7
_symmetry_space_group_name_H-M   'P 1'
_cell_length_a   7.36904681
_cell_length_b   4.97113333
_cell_length_c   5.03488672
_cell_angle_alpha   90.20139153
_cell_angle_beta   93.63516147
_cell_angle_gamma   89.80476935
_symmetry_Int_Tables_number   1
_chemical_formula_structural   LiBe2Si2O7
_chemical_formula_sum   'Li1 Be2 Si2 O7'
_cell_volume   184.06739217
_cell_formula_units_Z   1
loop_
 _symmetry_equiv_pos_site_id
 _symmetry_equiv_pos_as_xyz
  1  'x, y, z'
loop_
 _atom_site_type_symbol
 _atom_site_label
 _atom_site_symmetry_multiplicity
 _atom_site_fract_x
 _atom_site_fract_y
 _atom_site_fract_z
 _atom_site_occupancy
  Li  Li0  1  0.74136516  0.02521380  0.16591388  1
  Be  Be1  1  0.91477298  0.51948565  0.31403856  1
  Be  Be2  1  0.58351909  0.52179641  0.99269270  1
  Si  Si3  1  0.12537661  0.02839349  0.37685630  1
  Si  Si4  1  0.37901205  0.02758100  0.87589970  1
  O  O5  1  0.04927154  0.32166710  0.45677240  1
  O  O6  1  0.74332947  0.40724712  0.16597402  1
  O  O7  1  0.22813120  0.05725247  0.09957213  1
  O  O8  1  0.95257788  0.82795702  0.31581803  1
  O  O9  1  0.54334165  0.82881041  0.98415981  1
  O  O10  1  0.27196664  0.91083741  0.60543694  1
  O  O11  1  0.46295521  0.32274456  0.82718158  1
