data_image0
_chemical_formula_structural       LiCuO2
_chemical_formula_sum              "Li1 Cu1 O2"
_cell_length_a       2.9240246307855937
_cell_length_b       2.9348908505618296
_cell_length_c       5.065052509307861
_cell_angle_alpha    73.74337867949318
_cell_angle_beta     73.77770841146426
_cell_angle_gamma    59.888070720076946

_space_group_name_H-M_alt    "P 1"
_space_group_IT_number       1

loop_
  _space_group_symop_operation_xyz
  'x, y, z'

loop_
  _atom_site_type_symbol
  _atom_site_label
  _atom_site_symmetry_multiplicity
  _atom_site_fract_x
  _atom_site_fract_y
  _atom_site_fract_z
  _atom_site_occupancy
  Li  Li1       1.0  0.8424904346466064  0.6867958903312684  0.8492546677589417  1.0000
  Cu  Cu1       1.0  0.3402166366577148  0.1885144114494324  0.3474404215812683  1.0000
  O   O1        1.0  0.086417332291603  0.9299095273017884  0.1172618791460991  1.0000
  O   O2        1.0  0.5984708666801453  0.44173136353492737  0.5796771049499512  1.0000
