data_image0
_chemical_formula_structural       CoSe4DyLiSeLiCoDySe
_chemical_formula_sum              "Co2 Se6 Dy2 Li2"
_cell_length_a       3.9080382805542735
_cell_length_b       7.756955742638093
_cell_length_c       8.665329933166504
_cell_angle_alpha    77.17722284451598
_cell_angle_beta     76.8206324017961
_cell_angle_gamma    89.89654557409162

_space_group_name_H-M_alt    "P 1"
_space_group_IT_number       1

loop_
  _space_group_symop_operation_xyz
  'x, y, z'

loop_
  _atom_site_type_symbol
  _atom_site_label
  _atom_site_symmetry_multiplicity
  _atom_site_fract_x
  _atom_site_fract_y
  _atom_site_fract_z
  _atom_site_occupancy
  Co  Co1       1.0  0.8775628805160522  0.533435046672821  0.022605804726481438  1.0000
  Se  Se1       1.0  0.7160566449165344  0.9464610219001769  0.34880372881889343  1.0000
  Se  Se2       1.0  0.03723156452178955  0.6048105359077454  0.7009834051132202  1.0000
  Se  Se3       1.0  0.040061891078948975  0.11967747658491135  0.6968366503715515  1.0000
  Se  Se4       1.0  0.7162595391273499  0.4614644348621368  0.34621116518974304  1.0000
  Dy  Dy1       1.0  0.5404776334762573  0.8577032089233397  0.6986255645751953  1.0000
  Li  Li1       1.0  0.21026912331581116  0.6987549066543579  0.35692474246025085  1.0000
  Se  Se5       1.0  0.3825720548629761  0.2874802649021148  0.013640074990689767  1.0000
  Li  Li2       1.0  0.5447676777839661  0.3671669661998749  0.6875138878822327  1.0000
  Co  Co2       1.0  0.8769838213920593  0.03296894952654838  0.02373354323208332  1.0000
  Dy  Dy2       1.0  0.2143806368112564  0.20769011974334714  0.3486877679824829  1.0000
  Se  Se6       1.0  0.37283483147621155  0.7834550738334656  0.03319431096315384  1.0000
