data_image0
_chemical_formula_structural       DyBi2Li
_chemical_formula_sum              "Dy1 Bi2 Li1"
_cell_length_a       5.331224160487878
_cell_length_b       5.333720808440724
_cell_length_c       5.323895454406738
_cell_angle_alpha    59.99732729666496
_cell_angle_beta     60.021074002706285
_cell_angle_gamma    59.97315588607516

_space_group_name_H-M_alt    "P 1"
_space_group_IT_number       1

loop_
  _space_group_symop_operation_xyz
  'x, y, z'

loop_
  _atom_site_type_symbol
  _atom_site_label
  _atom_site_symmetry_multiplicity
  _atom_site_fract_x
  _atom_site_fract_y
  _atom_site_fract_z
  _atom_site_occupancy
  Dy  Dy1       1.0  0.17386199533939356  0.8357348442077638  0.673386812210083  1.0000
  Bi  Bi1       1.0  0.42283540964126587  0.0855252593755722  0.923845112323761  1.0000
  Bi  Bi2       1.0  0.9251439571380615  0.5877396464347839  0.423065721988678  1.0000
  Li  Li1       1.0  0.6737896203994751  0.3348439633846283  0.17377738654613495  1.0000
