# generated using pymatgen
data_LiHfRh2
_symmetry_space_group_name_H-M   'P 1'
_cell_length_a   4.39976310
_cell_length_b   4.40256667
_cell_length_c   4.40465746
_cell_angle_alpha   60.05276489
_cell_angle_beta   60.06714177
_cell_angle_gamma   60.05125932
_symmetry_Int_Tables_number   1
_chemical_formula_structural   LiHfRh2
_chemical_formula_sum   'Li1 Hf1 Rh2'
_cell_volume   60.40787912
_cell_formula_units_Z   1
loop_
 _symmetry_equiv_pos_site_id
 _symmetry_equiv_pos_as_xyz
  1  'x, y, z'
loop_
 _atom_site_type_symbol
 _atom_site_label
 _atom_site_symmetry_multiplicity
 _atom_site_fract_x
 _atom_site_fract_y
 _atom_site_fract_z
 _atom_site_occupancy
  Li  Li0  1  0.47955982  0.84075219  0.08214389  1
  Hf  Hf1  1  0.97964926  0.34090094  0.58221667  1
  Rh  Rh2  1  0.72983844  0.09092908  0.33179435  1
  Rh  Rh3  1  0.22975198  0.59111610  0.83256707  1
