data_image0
_chemical_formula_structural       ILiIMnILiIMnI2
_chemical_formula_sum              "I6 Li2 Mn2"
_cell_length_a       4.217710053060438
_cell_length_b       7.2974250524054645
_cell_length_c       10.541129112243652
_cell_angle_alpha    90.25073876584902
_cell_angle_beta     89.92754102527326
_cell_angle_gamma    89.80226852453062

_space_group_name_H-M_alt    "P 1"
_space_group_IT_number       1

loop_
  _space_group_symop_operation_xyz
  'x, y, z'

loop_
  _atom_site_type_symbol
  _atom_site_label
  _atom_site_symmetry_multiplicity
  _atom_site_fract_x
  _atom_site_fract_y
  _atom_site_fract_z
  _atom_site_occupancy
  I   I1        1.0  0.25255364179611206  0.36288943886756897  0.9885129332542419  1.0000
  Li  Li1       1.0  0.24755515158176422  0.36242100596427923  0.4921116530895233  1.0000
  I   I2        1.0  0.7519484758377075  0.8665128946304322  0.9894869327545166  1.0000
  Mn  Mn1       1.0  0.7505828738212585  0.19540534913539886  0.1275852471590042  1.0000
  I   I3        1.0  0.7503007650375366  0.1891096979379654  0.6303305625915527  1.0000
  Li  Li2       1.0  0.250074565410614  0.7010136842727662  0.13107028603553772  1.0000
  I   I4        1.0  0.2499842792749405  0.026469066739082336  0.31067293882369995  1.0000
  Mn  Mn2       1.0  0.7489570379257202  0.8647686243057252  0.490875244140625  1.0000
  I   I5        1.0  0.7511856555938721  0.5283167958259583  0.31031593680381775  1.0000
  I   I6        1.0  0.24912238121032715  0.7006753683090211  0.6316166520118713  1.0000
