# generated using pymatgen
data_LiMn2F7
_symmetry_space_group_name_H-M   'P 1'
_cell_length_a   4.94195130
_cell_length_b   5.61664320
_cell_length_c   5.22875136
_cell_angle_alpha   91.95448748
_cell_angle_beta   79.66164891
_cell_angle_gamma   72.98935956
_symmetry_Int_Tables_number   1
_chemical_formula_structural   LiMn2F7
_chemical_formula_sum   'Li1 Mn2 F7'
_cell_volume   135.95276300
_cell_formula_units_Z   1
loop_
 _symmetry_equiv_pos_site_id
 _symmetry_equiv_pos_as_xyz
  1  'x, y, z'
loop_
 _atom_site_type_symbol
 _atom_site_label
 _atom_site_symmetry_multiplicity
 _atom_site_fract_x
 _atom_site_fract_y
 _atom_site_fract_z
 _atom_site_occupancy
  Li  Li0  1  0.22671749  0.53158562  0.18968297  1
  Mn  Mn1  1  0.58153465  0.75534952  0.62720900  1
  Mn  Mn2  1  0.87629858  0.17725142  0.45806484  1
  F  F3  1  0.08111641  0.25972750  0.16645949  1
  F  F4  1  0.23679188  0.95333552  0.52233283  1
  F  F5  1  0.91187193  0.49842869  0.66993942  1
  F  F6  1  0.37222369  0.70454106  0.93374008  1
  F  F7  1  0.81669269  0.82279437  0.32132279  1
  F  F8  1  0.66646584  0.08854193  0.75541186  1
  F  F9  1  0.53050119  0.42805016  0.40399757  1
