data_image0
_chemical_formula_structural       Nd2ONdO4LiONd3O3
_chemical_formula_sum              "Nd6 O9 Li1"
_cell_length_a       3.934712907534746
_cell_length_b       7.0814174428197685
_cell_length_c       9.80888557434082
_cell_angle_alpha    98.7388534035119
_cell_angle_beta     89.97118593456031
_cell_angle_gamma    105.69416267292989

_space_group_name_H-M_alt    "P 1"
_space_group_IT_number       1

loop_
  _space_group_symop_operation_xyz
  'x, y, z'

loop_
  _atom_site_type_symbol
  _atom_site_label
  _atom_site_symmetry_multiplicity
  _atom_site_fract_x
  _atom_site_fract_y
  _atom_site_fract_z
  _atom_site_occupancy
  Nd  Nd1       1.0  0.51998370885849  0.96961510181427  0.682955801486969  1.0000
  Nd  Nd2       1.0  0.6035231947898865  0.13763318955898285  0.20068155229091644  1.0000
  O   O1        1.0  0.9455924034118652  0.8231649398803712  0.7412675619125366  1.0000
  Nd  Nd3       1.0  0.19536335766315463  0.3214075863361359  0.9130834341049194  1.0000
  O   O2        1.0  0.9831376671791077  0.893614411354065  0.252420574426651  1.0000
  O   O3        1.0  0.1410069316625595  0.21337015926837924  0.6311234831809998  1.0000
  O   O4        1.0  0.5615567564964294  0.053898695856332786  0.9414549469947815  1.0000
  O   O5        1.0  0.7595522999763489  0.45002332329750067  0.34229615330696106  1.0000
  Li  Li1       1.0  0.06081843748688698  0.051026754081249244  0.4424574077129364  1.0000
  O   O6        1.0  0.3629929125308991  0.6562464237213136  0.044240765273571035  1.0000
  Nd  Nd4       1.0  0.9298482537269591  0.7899778485298158  0.971192955970764  1.0000
  Nd  Nd5       1.0  0.7777018547058105  0.48886212706565857  0.5987040400505066  1.0000
  Nd  Nd6       1.0  0.3429499566555024  0.6136799454689027  0.2828361392021179  1.0000
  O   O7        1.0  0.7639349102973938  0.4581063389778137  0.8407717943191528  1.0000
  O   O8        1.0  0.17658782005310059  0.28303271532058716  0.1410083770751953  1.0000
  O   O9        1.0  0.36140692234039307  0.6537232995033264  0.5400952696800232  1.0000
