data_image0
_chemical_formula_structural       IPr2ILiPrI3Mn
_chemical_formula_sum              "I5 Pr3 Li1 Mn1"
_cell_length_a       4.280239879100964
_cell_length_b       11.078435354628914
_cell_length_c       7.913908958435059
_cell_angle_alpha    90.28768324117308
_cell_angle_beta     90.03445397791562
_cell_angle_gamma    89.79170906266776

_space_group_name_H-M_alt    "P 1"
_space_group_IT_number       1

loop_
  _space_group_symop_operation_xyz
  'x, y, z'

loop_
  _atom_site_type_symbol
  _atom_site_label
  _atom_site_symmetry_multiplicity
  _atom_site_fract_x
  _atom_site_fract_y
  _atom_site_fract_z
  _atom_site_occupancy
  I   I1        1.0  0.6073238253593445  0.06750291585922241  0.7221951484680176  1.0000
  Pr  Pr1       1.0  0.6100825667381287  0.901876389980316  0.35385364294052124  1.0000
  Pr  Pr2       1.0  0.10865060985088348  0.8878129720687866  0.9349613189697266  1.0000
  I   I2        1.0  0.6133438944816589  0.4405024051666259  0.41468334197998047  1.0000
  Li  Li1       1.0  0.6120598316192627  0.5968968868255615  0.8150568604469299  1.0000
  Pr  Pr3       1.0  0.11308247596025467  0.6072759628295898  0.19518546760082245  1.0000
  I   I3        1.0  0.11065766960382463  0.7474876046180725  0.5758357644081116  1.0000
  I   I4        1.0  0.10841972380876541  0.09758473932743073  0.22877618670463562  1.0000
  I   I5        1.0  0.11354850977659225  0.42033353447914124  0.897051215171814  1.0000
  Mn  Mn1       1.0  0.6105602383613586  0.7526054382324218  0.0689193457365036  1.0000
