data_image0
_chemical_formula_structural       LiPt3
_chemical_formula_sum              "Li1 Pt3"
_cell_length_a       4.318272644611786
_cell_length_b       4.318426162161716
_cell_length_c       4.321080684661865
_cell_angle_alpha    60.14541858105571
_cell_angle_beta     60.24478171068929
_cell_angle_gamma    60.242537531531866

_space_group_name_H-M_alt    "P 1"
_space_group_IT_number       1

loop_
  _space_group_symop_operation_xyz
  'x, y, z'

loop_
  _atom_site_type_symbol
  _atom_site_label
  _atom_site_symmetry_multiplicity
  _atom_site_fract_x
  _atom_site_fract_y
  _atom_site_fract_z
  _atom_site_occupancy
  Li  Li1       1.0  0.5435329079627991  0.3912798464298249  0.9856674075126648  1.0000
  Pt  Pt1       1.0  0.7941821217536927  0.6408228874206544  0.2366522103548049  1.0000
  Pt  Pt2       1.0  0.2937096953392029  0.1415526419878006  0.7352615594863892  1.0000
  Pt  Pt3       1.0  0.04373573511838913  0.8910245299339294  0.48596152663230896  1.0000
