# generated using pymatgen
data_LiTm4LuO8
_symmetry_space_group_name_H-M   'P 1'
_cell_length_a   5.85393869
_cell_length_b   5.63816677
_cell_length_c   5.81852249
_cell_angle_alpha   77.80762401
_cell_angle_beta   71.95780128
_cell_angle_gamma   78.22062420
_symmetry_Int_Tables_number   1
_chemical_formula_structural   LiTm4LuO8
_chemical_formula_sum   'Li1 Tm4 Lu1 O8'
_cell_volume   176.48165511
_cell_formula_units_Z   1
loop_
 _symmetry_equiv_pos_site_id
 _symmetry_equiv_pos_as_xyz
  1  'x, y, z'
loop_
 _atom_site_type_symbol
 _atom_site_label
 _atom_site_symmetry_multiplicity
 _atom_site_fract_x
 _atom_site_fract_y
 _atom_site_fract_z
 _atom_site_occupancy
  Li  Li0  1  0.33946773  0.50443899  0.77820047  1
  Tm  Tm1  1  0.13334428  0.00721792  -0.01576991  1
  Tm  Tm2  1  0.64564930  0.45401686  0.12728723  1
  Tm  Tm3  1  0.72972291  0.06479657  0.70118982  1
  Tm  Tm4  1  -0.01019315  0.55433727  0.46866031  1
  Lu  Lu5  1  0.42091955  0.93869599  0.38874352  1
  O  O6  1  0.91075772  0.30489749  0.82008964  1
  O  O7  1  0.42504691  0.26661778  0.52157407  1
  O  O8  1  0.29877558  0.70598956  0.20703399  1
  O  O9  1  0.79424213  0.77824193  0.18552638  1
  O  O10  1  0.43417226  0.19346031  0.02115814  1
  O  O11  1  0.59995197  0.73209972  0.68989045  1
  O  O12  1  0.92708145  0.23626050  0.32229140  1
  O  O13  1  0.10250758  0.81581105  0.68171191  1
