data_image0
_chemical_formula_structural       YSLiS
_chemical_formula_sum              "Y1 S2 Li1"
_cell_length_a       4.541291872828198
_cell_length_b       4.55553638839613
_cell_length_c       5.400759220123291
_cell_angle_alpha    90.01305499658882
_cell_angle_beta     89.89068531968978
_cell_angle_gamma    120.0727225657938

_space_group_name_H-M_alt    "P 1"
_space_group_IT_number       1

loop_
  _space_group_symop_operation_xyz
  'x, y, z'

loop_
  _atom_site_type_symbol
  _atom_site_label
  _atom_site_symmetry_multiplicity
  _atom_site_fract_x
  _atom_site_fract_y
  _atom_site_fract_z
  _atom_site_occupancy
  Y   Y1        1.0  0.4448944628238678  0.8506242036819458  0.7449418306350708  1.0000
  S   S1        1.0  0.11238518357276917  0.18374821543693542  0.743172824382782  1.0000
  Li  Li1       1.0  0.11125162243843079  0.1821962594985962  0.24362139403820035  1.0000
  S   S2        1.0  0.44364866614341736  0.8502869606018066  0.2445480078458786  1.0000
