data_image0
_chemical_formula_structural       LuFeSiLuSiNiSiPbFeSiFeSi
_chemical_formula_sum              "Lu2 Fe3 Si5 Ni1 Pb1"
_cell_length_a       3.839725150027779
_cell_length_b       3.8458005960391244
_cell_length_c       14.85029125213623
_cell_angle_alpha    90.0272412980811
_cell_angle_beta     89.89595140132849
_cell_angle_gamma    120.01605768143605

_space_group_name_H-M_alt    "P 1"
_space_group_IT_number       1

loop_
  _space_group_symop_operation_xyz
  'x, y, z'

loop_
  _atom_site_type_symbol
  _atom_site_label
  _atom_site_symmetry_multiplicity
  _atom_site_fract_x
  _atom_site_fract_y
  _atom_site_fract_z
  _atom_site_occupancy
  Lu  Lu1       1.0  0.2690864801406861  0.604319453239441  0.9093201160430907  1.0000
  Fe  Fe1       1.0  0.9357692003250122  0.9397034645080568  0.7418874502182006  1.0000
  Si  Si1       1.0  0.9317629337310791  0.9362680912017823  0.2918986082077026  1.0000
  Lu  Lu2       1.0  0.2655418515205384  0.6034605503082277  0.15945395827293393  1.0000
  Si  Si2       1.0  0.6044860482215881  0.2733791172504425  0.7942315936088561  1.0000
  Ni  Ni1       1.0  0.9338374137878419  0.9361578226089479  0.03826062008738517  1.0000
  Si  Si3       1.0  0.2690377235412598  0.6069561243057252  0.6888415813446044  1.0000
  Pb  Pb1       1.0  0.933998167514801  0.93735671043396  0.5043178200721741  1.0000
  Fe  Fe2       1.0  0.26570579409599304  0.6041994094848633  0.36807420849800104  1.0000
  Si  Si4       1.0  0.6008176207542419  0.27044495940208435  0.027901878580451008  1.0000
  Fe  Fe3       1.0  0.6024060845375061  0.2723821699619293  0.6382002234458922  1.0000
  Si  Si5       1.0  0.598630428314209  0.2700366675853729  0.299811840057373  1.0000
