# generated using pymatgen
data_Lu4In3Rh4
_symmetry_space_group_name_H-M   'P 1'
_cell_length_a   3.77575962
_cell_length_b   7.44817490
_cell_length_c   8.26780495
_cell_angle_alpha   96.46263195
_cell_angle_beta   90.00448719
_cell_angle_gamma   89.99853316
_symmetry_Int_Tables_number   1
_chemical_formula_structural   Lu4In3Rh4
_chemical_formula_sum   'Lu4 In3 Rh4'
_cell_volume   231.03399315
_cell_formula_units_Z   1
loop_
 _symmetry_equiv_pos_site_id
 _symmetry_equiv_pos_as_xyz
  1  'x, y, z'
loop_
 _atom_site_type_symbol
 _atom_site_label
 _atom_site_symmetry_multiplicity
 _atom_site_fract_x
 _atom_site_fract_y
 _atom_site_fract_z
 _atom_site_occupancy
  Lu  Lu0  1  0.37169106  0.15309828  0.80217048  1
  Lu  Lu1  1  0.37166529  0.82555008  0.07378826  1
  Lu  Lu2  1  0.37171371  0.63099599  0.62303208  1
  Lu  Lu3  1  0.37166786  0.21796536  0.33165163  1
  In  In4  1  0.87171536  0.94363497  0.49515284  1
  In  In5  1  0.87168308  0.50076241  0.88583937  1
  In  In6  1  0.87167756  0.56568862  0.31231621  1
  Rh  Rh7  1  0.87165748  0.14916481  0.07283743  1
  Rh  Rh8  1  0.37170974  0.44159613  0.09693353  1
  Rh  Rh9  1  0.87168675  0.32504995  0.57282694  1
  Rh  Rh10  1  0.87167104  0.86095735  0.82119956  1
