# generated using pymatgen
data_LuIr3
_symmetry_space_group_name_H-M   'P 1'
_cell_length_a   4.55549146
_cell_length_b   4.55532699
_cell_length_c   4.55399380
_cell_angle_alpha   59.99665593
_cell_angle_beta   59.98538947
_cell_angle_gamma   59.97096795
_symmetry_Int_Tables_number   1
_chemical_formula_structural   LuIr3
_chemical_formula_sum   'Lu1 Ir3'
_cell_volume   66.80022499
_cell_formula_units_Z   1
loop_
 _symmetry_equiv_pos_site_id
 _symmetry_equiv_pos_as_xyz
  1  'x, y, z'
loop_
 _atom_site_type_symbol
 _atom_site_label
 _atom_site_symmetry_multiplicity
 _atom_site_fract_x
 _atom_site_fract_y
 _atom_site_fract_z
 _atom_site_occupancy
  Lu  Lu0  1  0.42873023  0.69714264  0.05147217  1
  Ir  Ir1  1  0.92917316  0.19700064  0.55184950  1
  Ir  Ir2  1  0.17854944  0.44728903  0.80105233  1
  Ir  Ir3  1  0.67914157  0.94699071  0.30104454  1
