# generated using pymatgen
data_Mg2ScCuO4
_symmetry_space_group_name_H-M   'P 1'
_cell_length_a   4.32050708
_cell_length_b   4.32960405
_cell_length_c   6.16925761
_cell_angle_alpha   134.49579193
_cell_angle_beta   89.91594976
_cell_angle_gamma   89.99855528
_symmetry_Int_Tables_number   1
_chemical_formula_structural   Mg2ScCuO4
_chemical_formula_sum   'Mg2 Sc1 Cu1 O4'
_cell_volume   82.31675912
_cell_formula_units_Z   1
loop_
 _symmetry_equiv_pos_site_id
 _symmetry_equiv_pos_as_xyz
  1  'x, y, z'
loop_
 _atom_site_type_symbol
 _atom_site_label
 _atom_site_symmetry_multiplicity
 _atom_site_fract_x
 _atom_site_fract_y
 _atom_site_fract_z
 _atom_site_occupancy
  Mg  Mg0  1  0.35079106  0.34066905  0.70651395  1
  Mg  Mg1  1  0.85069768  0.83967369  0.70602502  1
  Sc  Sc2  1  0.35079823  0.34082071  0.20650025  1
  Cu  Cu3  1  0.85045449  0.84138129  0.20676921  1
  O  O4  1  0.85054386  0.34027492  0.70664514  1
  O  O5  1  0.85052458  0.34051992  0.20633142  1
  O  O6  1  0.35038677  0.84089237  0.20659676  1
  O  O7  1  0.35061408  0.84015097  0.70625040  1
