data_image0
_chemical_formula_structural       Mg3HgMg
_chemical_formula_sum              "Mg4 Hg1"
_cell_length_a       3.1923150738636745
_cell_length_b       3.1959694707634956
_cell_length_c       11.536105155944824
_cell_angle_alpha    98.1163641754073
_cell_angle_beta     97.90737409614232
_cell_angle_gamma    89.75611694389707

_space_group_name_H-M_alt    "P 1"
_space_group_IT_number       1

loop_
  _space_group_symop_operation_xyz
  'x, y, z'

loop_
  _atom_site_type_symbol
  _atom_site_label
  _atom_site_symmetry_multiplicity
  _atom_site_fract_x
  _atom_site_fract_y
  _atom_site_fract_z
  _atom_site_occupancy
  Mg  Mg1       1.0  0.34247997403144836  0.996299147605896  0.6191294193267822  1.0000
  Mg  Mg2       1.0  0.1417076289653778  0.7959009408950806  0.21398369967937472  1.0000
  Mg  Mg3       1.0  0.9449080228805541  0.5998907089233398  0.821328639984131  1.0000
  Hg  Hg1       1.0  0.5427484512329102  0.19751372933387756  0.017616329714655876  1.0000
  Mg  Mg4       1.0  0.7423936128616333  0.396953821182251  0.4172463715076447  1.0000
