data_image0
_chemical_formula_structural       Bi2Mg
_chemical_formula_sum              "Bi2 Mg1"
_cell_length_a       5.100804681298293
_cell_length_b       5.101132622641224
_cell_length_c       5.102682590484619
_cell_angle_alpha    59.82167856244395
_cell_angle_beta     59.826767004042075
_cell_angle_gamma    59.933595052650055

_space_group_name_H-M_alt    "P 1"
_space_group_IT_number       1

loop_
  _space_group_symop_operation_xyz
  'x, y, z'

loop_
  _atom_site_type_symbol
  _atom_site_label
  _atom_site_symmetry_multiplicity
  _atom_site_fract_x
  _atom_site_fract_y
  _atom_site_fract_z
  _atom_site_occupancy
  Bi  Bi1       1.0  0.5508319139480591  0.47973209619522095  0.6491706967353821  1.0000
  Bi  Bi2       1.0  0.051180399954319  0.9787434339523315  0.14715923368930817  1.0000
  Mg  Mg1       1.0  0.3006289601325989  0.22909805178642273  0.39793872833251953  1.0000
