data_image0
_chemical_formula_structural       TlMgTlMg
_chemical_formula_sum              "Tl2 Mg2"
_cell_length_a       5.222566818423521
_cell_length_b       5.220716580098998
_cell_length_c       5.217872619628906
_cell_angle_alpha    59.926690556362395
_cell_angle_beta     59.91197530481567
_cell_angle_gamma    59.85286807410523

_space_group_name_H-M_alt    "P 1"
_space_group_IT_number       1

loop_
  _space_group_symop_operation_xyz
  'x, y, z'

loop_
  _atom_site_type_symbol
  _atom_site_label
  _atom_site_symmetry_multiplicity
  _atom_site_fract_x
  _atom_site_fract_y
  _atom_site_fract_z
  _atom_site_occupancy
  Tl  Tl1       1.0  0.9503313302993774  0.08024938404560088  0.8500343561172485  1.0000
  Mg  Mg1       1.0  0.7012819051742553  0.8280539512634277  0.5997961759567261  1.0000
  Tl  Tl2       1.0  0.4503682255744934  0.5803837180137634  0.3499329090118408  1.0000
  Mg  Mg2       1.0  0.2016962468624115  0.3289873003959656  0.0999145582318306  1.0000
