# generated using pymatgen
data_MgZn2Ni3
_symmetry_space_group_name_H-M   'P 1'
_cell_length_a   4.76243936
_cell_length_b   4.76381710
_cell_length_c   4.76346656
_cell_angle_alpha   61.96682003
_cell_angle_beta   61.93999189
_cell_angle_gamma   61.98164351
_symmetry_Int_Tables_number   1
_chemical_formula_structural   MgZn2Ni3
_chemical_formula_sum   'Mg1 Zn2 Ni3'
_cell_volume   79.77334650
_cell_formula_units_Z   1
loop_
 _symmetry_equiv_pos_site_id
 _symmetry_equiv_pos_as_xyz
  1  'x, y, z'
loop_
 _atom_site_type_symbol
 _atom_site_label
 _atom_site_symmetry_multiplicity
 _atom_site_fract_x
 _atom_site_fract_y
 _atom_site_fract_z
 _atom_site_occupancy
  Mg  Mg0  1  0.34177875  0.47850259  0.63594150  1
  Zn  Zn1  1  0.58681052  0.72445034  0.88170418  1
  Zn  Zn2  1  0.96411303  0.10028543  0.25826157  1
  Ni  Ni3  1  0.96344452  0.60143259  0.25684206  1
  Ni  Ni4  1  0.46501918  0.09986577  0.25710022  1
  Ni  Ni5  1  0.96341106  0.10006176  0.75872390  1
