# generated using pymatgen
data_Mn2BePd
_symmetry_space_group_name_H-M   'P 1'
_cell_length_a   4.10349512
_cell_length_b   4.10266728
_cell_length_c   4.09719895
_cell_angle_alpha   60.02429393
_cell_angle_beta   59.99466105
_cell_angle_gamma   59.84768084
_symmetry_Int_Tables_number   1
_chemical_formula_structural   Mn2BePd
_chemical_formula_sum   'Mn2 Be1 Pd1'
_cell_volume   48.72499884
_cell_formula_units_Z   1
loop_
 _symmetry_equiv_pos_site_id
 _symmetry_equiv_pos_as_xyz
  1  'x, y, z'
loop_
 _atom_site_type_symbol
 _atom_site_label
 _atom_site_symmetry_multiplicity
 _atom_site_fract_x
 _atom_site_fract_y
 _atom_site_fract_z
 _atom_site_occupancy
  Mn  Mn0  1  0.65427077  0.79418143  0.93595833  1
  Mn  Mn1  1  0.40452481  0.54441177  0.68606010  1
  Be  Be2  1  0.15403985  0.29455112  0.43609686  1
  Pd  Pd3  1  0.90394542  0.04398607  0.18588639  1
