data_image0
_chemical_formula_structural       MnBr3MnBr
_chemical_formula_sum              "Mn2 Br4"
_cell_length_a       3.9995433553112227
_cell_length_b       6.390397953321678
_cell_length_c       6.4392170906066895
_cell_angle_alpha    90.25892815679416
_cell_angle_beta     90.2753342588958
_cell_angle_gamma    90.07893216960116

_space_group_name_H-M_alt    "P 1"
_space_group_IT_number       1

loop_
  _space_group_symop_operation_xyz
  'x, y, z'

loop_
  _atom_site_type_symbol
  _atom_site_label
  _atom_site_symmetry_multiplicity
  _atom_site_fract_x
  _atom_site_fract_y
  _atom_site_fract_z
  _atom_site_occupancy
  Mn  Mn1       1.0  0.6107411980628967  0.22330619394779205  0.5749459266662598  1.0000
  Br  Br1       1.0  0.10920458287000656  0.42122721672058105  0.7731437683105469  1.0000
  Br  Br2       1.0  0.6088557243347168  0.5245060324668884  0.2744487524032593  1.0000
  Br  Br3       1.0  0.10873965173959732  0.02476324327290058  0.37670212984085083  1.0000
  Mn  Mn2       1.0  0.10871867835521698  0.7214938402175903  0.07565592229366302  1.0000
  Br  Br4       1.0  0.6098815202713013  0.919945478439331  0.8759444355964661  1.0000
