data_image0
_chemical_formula_structural       SnSMnCuAgS3
_chemical_formula_sum              "Sn1 S4 Mn1 Cu1 Ag1"
_cell_length_a       5.763967622964319
_cell_length_b       5.7119394841916575
_cell_length_c       5.687618255615234
_cell_angle_alpha    89.87542667140583
_cell_angle_beta     89.73609084019535
_cell_angle_gamma    89.57321128513438

_space_group_name_H-M_alt    "P 1"
_space_group_IT_number       1

loop_
  _space_group_symop_operation_xyz
  'x, y, z'

loop_
  _atom_site_type_symbol
  _atom_site_label
  _atom_site_symmetry_multiplicity
  _atom_site_fract_x
  _atom_site_fract_y
  _atom_site_fract_z
  _atom_site_occupancy
  Sn  Sn1       1.0  0.14040422439575195  0.23472942411899567  0.7309214472770691  1.0000
  S   S1        1.0  0.3825616240501404  0.9809220433235168  0.002646715845912695  1.0000
  Mn  Mn1       1.0  0.6405578255653381  0.23369269073009494  0.23197150230407715  1.0000
  Cu  Cu1       1.0  0.1402662694454193  0.7357654571533203  0.23152238130569458  1.0000
  Ag  Ag1       1.0  0.6426607966423035  0.7373895645141602  0.7290706634521484  1.0000
  S   S2        1.0  0.9017578959465027  0.9834109544754029  0.4601674973964691  1.0000
  S   S3        1.0  0.3813107907772064  0.4910872280597687  0.46086621284484863  1.0000
  S   S4        1.0  0.9004719853401184  0.49239450693130493  0.0025165989063680163  1.0000
