data_image0
_chemical_formula_structural       RhMnGeSi
_chemical_formula_sum              "Rh1 Mn1 Ge1 Si1"
_cell_length_a       4.233588155449035
_cell_length_b       4.240691599178755
_cell_length_c       4.242716312408447
_cell_angle_alpha    59.79990646223541
_cell_angle_beta     59.884938588266515
_cell_angle_gamma    59.846730484324816

_space_group_name_H-M_alt    "P 1"
_space_group_IT_number       1

loop_
  _space_group_symop_operation_xyz
  'x, y, z'

loop_
  _atom_site_type_symbol
  _atom_site_label
  _atom_site_symmetry_multiplicity
  _atom_site_fract_x
  _atom_site_fract_y
  _atom_site_fract_z
  _atom_site_occupancy
  Rh  Rh1       1.0  0.9397630691528321  0.48095378279685974  0.054302435368299484  1.0000
  Mn  Mn1       1.0  0.43960565328598017  0.9811307191848754  0.5544816851615907  1.0000
  Ge  Ge1       1.0  0.6889119148254395  0.23075886070728302  0.8054216504096985  1.0000
  Si  Si1       1.0  0.189337819814682  0.7310069799423218  0.3045761585235596  1.0000
