data_image0
_chemical_formula_structural       CrS2MnSCrZn2S4CrZnHS5
_chemical_formula_sum              "Cr3 S12 Mn1 Zn3 H1"
_cell_length_a       3.445423825804765
_cell_length_b       6.05795206223958
_cell_length_c       20.3293399810791
_cell_angle_alpha    101.99024906969665
_cell_angle_beta     85.0491469290702
_cell_angle_gamma    89.99592488081684

_space_group_name_H-M_alt    "P 1"
_space_group_IT_number       1

loop_
  _space_group_symop_operation_xyz
  'x, y, z'

loop_
  _atom_site_type_symbol
  _atom_site_label
  _atom_site_symmetry_multiplicity
  _atom_site_fract_x
  _atom_site_fract_y
  _atom_site_fract_z
  _atom_site_occupancy
  Cr  Cr1       1.0  0.05683861672878266  0.7110872268676758  0.6774648427963257  1.0000
  S   S1        1.0  0.41917929053306585  0.9347429275512695  0.9603578448295593  1.0000
  S   S2        1.0  0.0747644230723381  0.34039625525474543  0.6382675170898438  1.0000
  Mn  Mn1       1.0  0.6144526004791261  0.4457322955131531  0.5692209601402283  1.0000
  S   S3        1.0  0.8320074677467347  0.007299717050045729  0.129963219165802  1.0000
  Cr  Cr2       1.0  0.20856919884681704  0.37049388885498047  0.39006277918815613  1.0000
  Zn  Zn1       1.0  0.4278056919574738  0.5335208177566528  0.9376260042190552  1.0000
  Zn  Zn2       1.0  0.3291128873825074  0.7531700134277344  0.13428613543510437  1.0000
  S   S4        1.0  0.5338810086250305  0.9777122139930725  0.7181748151779175  1.0000
  S   S5        1.0  0.374939113855362  0.4164157807826996  0.04070556163787842  1.0000
  S   S6        1.0  0.28760212659835815  0.5778303742408752  0.2259569615125656  1.0000
  S   S7        1.0  0.517181932926178  0.7175434827804567  0.7575286626815796  1.0000
  Cr  Cr3       1.0  0.8846518993377687  0.12952648103237152  0.02778315730392933  1.0000
  Zn  Zn3       1.0  0.7557731270790101  0.7870027422904968  0.29049918055534363  1.0000
  H   H1        1.0  0.9714446663856507  0.1574096530675888  0.8737671971321106  1.0000
  S   S8        1.0  0.11604731529951097  0.7247154116630554  0.5623692870140076  1.0000
  S   S9        1.0  0.15341101586818698  0.2384025007486343  0.48594364523887634  1.0000
  S   S10       1.0  0.7083423733711244  0.6079254746437073  0.38846781849861145  1.0000
  S   S11       1.0  0.2492972016334534  0.07973054051399231  0.31133267283439636  1.0000
  S   S12       1.0  0.9626615643501283  0.3866349458694458  0.8613854050636292  1.0000
