# generated using pymatgen
data_Mo2WS6
_symmetry_space_group_name_H-M   'P 1'
_cell_length_a   3.18240757
_cell_length_b   3.18271142
_cell_length_c   22.28288671
_cell_angle_alpha   87.37764775
_cell_angle_beta   92.02865467
_cell_angle_gamma   120.00363348
_symmetry_Int_Tables_number   1
_chemical_formula_structural   Mo2WS6
_chemical_formula_sum   'Mo2 W1 S6'
_cell_volume   195.22647789
_cell_formula_units_Z   1
loop_
 _symmetry_equiv_pos_site_id
 _symmetry_equiv_pos_as_xyz
  1  'x, y, z'
loop_
 _atom_site_type_symbol
 _atom_site_label
 _atom_site_symmetry_multiplicity
 _atom_site_fract_x
 _atom_site_fract_y
 _atom_site_fract_z
 _atom_site_occupancy
  Mo  Mo0  1  0.63105121  0.46828578  0.13847553  1
  Mo  Mo1  1  0.24753996  0.86735680  0.81227138  1
  W  W2  1  0.56507180  0.61539838  0.48967656  1
  S  S3  1  0.57283010  0.55252076  0.74209343  1
  S  S4  1  0.24000001  0.93053211  0.56023481  1
  S  S5  1  0.30576346  0.78300578  0.20861729  1
  S  S6  1  0.22337863  0.96721364  0.41912181  1
  S  S7  1  0.28955380  0.81978049  0.06831737  1
  S  S8  1  0.58924298  0.51560988  0.88241651  1
