data_image0
_chemical_formula_structural       S2WMo2SeSWSSe
_chemical_formula_sum              "S4 W2 Mo2 Se2"
_cell_length_a       3.308141026082886
_cell_length_b       3.3069655023652245
_cell_length_c       21.6344051361084
_cell_angle_alpha    93.8265888904091
_cell_angle_beta     89.89536400403681
_cell_angle_gamma    119.59224046257775

_space_group_name_H-M_alt    "P 1"
_space_group_IT_number       1

loop_
  _space_group_symop_operation_xyz
  'x, y, z'

loop_
  _atom_site_type_symbol
  _atom_site_label
  _atom_site_symmetry_multiplicity
  _atom_site_fract_x
  _atom_site_fract_y
  _atom_site_fract_z
  _atom_site_occupancy
  S   S1        1.0  0.5150372385978699  0.11632268130779266  0.8489723205566406  1.0000
  S   S2        1.0  0.4635414779186249  0.007072207517921925  0.6820343136787415  1.0000
  W   W1        1.0  0.15586844086647036  0.3908370137214661  0.7587100267410278  1.0000
  Mo  Mo1       1.0  0.6448805332183838  0.3841947615146637  0.2420232743024826  1.0000
  Mo  Mo2       1.0  0.8758920431137085  0.8395661115646363  0.9362272620201111  1.0000
  Se  Se1       1.0  0.013372810557484635  0.11625242233276369  0.34626612067222595  1.0000
  S   S3        1.0  0.2856670320034027  0.6637507677078247  0.16310817003250122  1.0000
  W   W2        1.0  0.3772498071193695  0.8452797532081604  0.44295915961265564  1.0000
  S   S4        1.0  0.5668131709098816  0.22090998291969302  0.009866674430668354  1.0000
  Se  Se2       1.0  0.07178661972284317  0.232100248336792  0.5263432264328003  1.0000
