data_image0
_chemical_formula_structural       Na2FO
_chemical_formula_sum              "Na2 F1 O1"
_cell_length_a       3.3714207040184125
_cell_length_b       3.3531502224788694
_cell_length_c       4.703054428100586
_cell_angle_alpha    90.33429929906575
_cell_angle_beta     90.22634813690455
_cell_angle_gamma    89.868562350059

_space_group_name_H-M_alt    "P 1"
_space_group_IT_number       1

loop_
  _space_group_symop_operation_xyz
  'x, y, z'

loop_
  _atom_site_type_symbol
  _atom_site_label
  _atom_site_symmetry_multiplicity
  _atom_site_fract_x
  _atom_site_fract_y
  _atom_site_fract_z
  _atom_site_occupancy
  Na  Na1       1.0  0.5800048112869263  0.4933764934539795  0.34160906076431274  1.0000
  Na  Na2       1.0  0.08010169863700867  0.9923378825187683  0.8421019911766052  1.0000
  F   F1        1.0  0.08035354316234589  0.9946281909942627  0.3434419333934784  1.0000
  O   O1        1.0  0.5804761052131653  0.4969178438186645  0.8427023887634277  1.0000
