data_image0
_chemical_formula_structural       PtNaBr4Na
_chemical_formula_sum              "Pt1 Na2 Br4"
_cell_length_a       4.112007267021634
_cell_length_b       6.771568374697403
_cell_length_c       7.046647548675537
_cell_angle_alpha    89.4767621726321
_cell_angle_beta     89.95848178675266
_cell_angle_gamma    90.19044183691246

_space_group_name_H-M_alt    "P 1"
_space_group_IT_number       1

loop_
  _space_group_symop_operation_xyz
  'x, y, z'

loop_
  _atom_site_type_symbol
  _atom_site_label
  _atom_site_symmetry_multiplicity
  _atom_site_fract_x
  _atom_site_fract_y
  _atom_site_fract_z
  _atom_site_occupancy
  Pt  Pt1       1.0  0.5809935331344604  0.587660551071167  0.4588391184806824  1.0000
  Na  Na1       1.0  0.08264108002185822  0.5870450139045715  0.9592145085334778  1.0000
  Br  Br1       1.0  0.5817842483520508  0.8358855247497559  0.7727470993995667  1.0000
  Br  Br2       1.0  0.5826431512832642  0.3378040194511414  0.14536873996257782  1.0000
  Br  Br3       1.0  0.0817020833492279  0.37181356549263  0.6083236932754517  1.0000
  Br  Br4       1.0  0.08266790211200714  0.8022571206092834  0.31034326553344727  1.0000
  Na  Na2       1.0  0.0826309472322464  0.08765404671430589  0.9586031436920166  1.0000
