# generated using pymatgen
data_Na3H5CO7
_symmetry_space_group_name_H-M   'P 1'
_cell_length_a   5.19468615
_cell_length_b   4.51852714
_cell_length_c   10.66448091
_cell_angle_alpha   86.03383518
_cell_angle_beta   94.04859709
_cell_angle_gamma   131.64574484
_symmetry_Int_Tables_number   1
_chemical_formula_structural   Na3H5CO7
_chemical_formula_sum   'Na3 H5 C1 O7'
_cell_volume   186.50629237
_cell_formula_units_Z   1
loop_
 _symmetry_equiv_pos_site_id
 _symmetry_equiv_pos_as_xyz
  1  'x, y, z'
loop_
 _atom_site_type_symbol
 _atom_site_label
 _atom_site_symmetry_multiplicity
 _atom_site_fract_x
 _atom_site_fract_y
 _atom_site_fract_z
 _atom_site_occupancy
  Na  Na0  1  0.97534892  0.96487503  0.81901818  1
  Na  Na1  1  0.02990092  0.92640327  0.13897815  1
  Na  Na2  1  0.55815815  0.40988207  0.59626928  1
  H  H3  1  0.73819663  0.16637053  0.20884141  1
  H  H4  1  0.15293960  0.42982703  0.38531018  1
  H  H5  1  0.65227631  0.93171545  0.34406602  1
  H  H6  1  0.24857576  0.66845188  0.51304723  1
  H  H7  1  0.39686888  0.84720453  0.78948291  1
  C  C8  1  0.65120656  0.18403590  0.98532293  1
  O  O9  1  0.30617263  0.64482541  0.72138314  1
  O  O10  1  0.85901255  0.12502678  -0.01581398  1
  O  O11  1  0.13778965  0.74711268  0.63156563  1
  O  O12  1  0.84034702  0.11171700  0.28303279  1
  O  O13  1  0.58542378  0.25005283  0.09198837  1
  O  O14  1  0.50547694  0.18814282  0.88010746  1
  O  O15  1  0.34500896  0.60766788  0.44832813  1
