data_image0
_chemical_formula_structural       Na2SbNa
_chemical_formula_sum              "Na3 Sb1"
_cell_length_a       5.36577296510528
_cell_length_b       5.348380271260924
_cell_length_c       5.370758533477783
_cell_angle_alpha    59.79092423980899
_cell_angle_beta     59.75539733402049
_cell_angle_gamma    59.758473098271104

_space_group_name_H-M_alt    "P 1"
_space_group_IT_number       1

loop_
  _space_group_symop_operation_xyz
  'x, y, z'

loop_
  _atom_site_type_symbol
  _atom_site_label
  _atom_site_symmetry_multiplicity
  _atom_site_fract_x
  _atom_site_fract_y
  _atom_site_fract_z
  _atom_site_occupancy
  Na  Na1       1.0  0.2767339944839478  0.8243230581283569  0.5059187412261963  1.0000
  Na  Na2       1.0  0.027127973735332513  0.5749388933181763  0.25632229447364807  1.0000
  Sb  Sb1       1.0  0.7791737318038939  0.3252964913845062  0.008211255073547363  1.0000
  Na  Na3       1.0  0.527258038520813  0.07531106472015382  0.7563955783843994  1.0000
