data_image0
_chemical_formula_structural       S2Na3S2SnSSn
_chemical_formula_sum              "S5 Na3 Sn2"
_cell_length_a       4.024408681223781
_cell_length_b       5.676091667158711
_cell_length_c       10.853662490844727
_cell_angle_alpha    105.38934006869033
_cell_angle_beta     100.91361315905569
_cell_angle_gamma    89.97486075511337

_space_group_name_H-M_alt    "P 1"
_space_group_IT_number       1

loop_
  _space_group_symop_operation_xyz
  'x, y, z'

loop_
  _atom_site_type_symbol
  _atom_site_label
  _atom_site_symmetry_multiplicity
  _atom_site_fract_x
  _atom_site_fract_y
  _atom_site_fract_z
  _atom_site_occupancy
  S   S1        1.0  0.9547218680381775  0.1522763818502426  0.8247953057289124  1.0000
  S   S2        1.0  0.36487516760826105  0.5644194483757018  0.645418643951416  1.0000
  Na  Na1       1.0  0.9654473662376404  0.6644281148910521  0.8440548181533813  1.0000
  Na  Na2       1.0  0.7617124915122986  0.4663290381431579  0.4411994516849518  1.0000
  Na  Na3       1.0  0.5620468854904175  0.2659968733787536  0.041516274213790894  1.0000
  S   S3        1.0  0.7640520334243774  0.9700610041618346  0.44539424777030945  1.0000
  S   S4        1.0  0.15988214313983917  0.3663229048252105  0.23808205127716064  1.0000
  Sn  Sn1       1.0  0.1586197316646576  0.8646116256713866  0.23681090772151947  1.0000
  S   S5        1.0  0.567985475063324  0.773934006690979  0.05423351749777796  1.0000
  Sn  Sn2       1.0  0.3656679689884186  0.06434526294469832  0.6465603709220886  1.0000
