data_image0
_chemical_formula_structural       NaOAg
_chemical_formula_sum              "Na1 O1 Ag1"
_cell_length_a       3.666613347717593
_cell_length_b       3.6393956822569478
_cell_length_c       4.973812103271484
_cell_angle_alpha    68.37640036694178
_cell_angle_beta     68.00235255554227
_cell_angle_gamma    59.19716948236663

_space_group_name_H-M_alt    "P 1"
_space_group_IT_number       1

loop_
  _space_group_symop_operation_xyz
  'x, y, z'

loop_
  _atom_site_type_symbol
  _atom_site_label
  _atom_site_symmetry_multiplicity
  _atom_site_fract_x
  _atom_site_fract_y
  _atom_site_fract_z
  _atom_site_occupancy
  Na  Na1       1.0  0.22042007744312284  0.4244294166564941  0.34851720929145813  1.0000
  O   O1        1.0  0.9685897231101989  0.1707669496536255  0.1106646358966828  1.0000
  Ag  Ag1       1.0  0.7121450304985046  0.9068863391876221  0.8904526829719543  1.0000
