data_image0
_chemical_formula_structural       B3Na
_chemical_formula_sum              "B3 Na1"
_cell_length_a       3.176795728363614
_cell_length_b       3.173683196274156
_cell_length_c       5.681264877319336
_cell_angle_alpha    90.07066763384613
_cell_angle_beta     89.4410539590869
_cell_angle_gamma    61.820491892174424

_space_group_name_H-M_alt    "P 1"
_space_group_IT_number       1

loop_
  _space_group_symop_operation_xyz
  'x, y, z'

loop_
  _atom_site_type_symbol
  _atom_site_label
  _atom_site_symmetry_multiplicity
  _atom_site_fract_x
  _atom_site_fract_y
  _atom_site_fract_z
  _atom_site_occupancy
  B   B1        1.0  0.6543333530426025  0.8787915706634523  0.5811991691589355  1.0000
  B   B2        1.0  0.3192635178565979  0.5476718544960022  0.5807594656944275  1.0000
  B   B3        1.0  0.9874827861785888  0.21143925189971927  0.5823624134063721  1.0000
  Na  Na1       1.0  0.33014976978302  0.5513546466827393  0.08208566904067993  1.0000
