# generated using pymatgen
data_NaMnO2
_symmetry_space_group_name_H-M   'P 1'
_cell_length_a   2.91632189
_cell_length_b   6.39853626
_cell_length_c   7.61877297
_cell_angle_alpha   78.26714802
_cell_angle_beta   101.02853203
_cell_angle_gamma   90.00300281
_symmetry_Int_Tables_number   1
_chemical_formula_structural   NaMnO2
_chemical_formula_sum   'Na3 Mn3 O6'
_cell_volume   136.51499825
_cell_formula_units_Z   3
loop_
 _symmetry_equiv_pos_site_id
 _symmetry_equiv_pos_as_xyz
  1  'x, y, z'
loop_
 _atom_site_type_symbol
 _atom_site_label
 _atom_site_symmetry_multiplicity
 _atom_site_fract_x
 _atom_site_fract_y
 _atom_site_fract_z
 _atom_site_occupancy
  Na  Na0  1  0.50862286  0.79836354  0.80266093  1
  Na  Na1  1  0.17574670  0.96195238  0.13670835  1
  Na  Na2  1  0.84314196  0.12485558  0.47084632  1
  Mn  Mn3  1  0.84205650  0.62643153  0.46883451  1
  Mn  Mn4  1  0.17579280  0.46201293  0.13685734  1
  Mn  Mn5  1  0.50958983  0.29682745  0.80469890  1
  O  O6  1  0.00900272  0.09325412  0.80364048  1
  O  O7  1  0.67597402  0.66733735  0.13700919  1
  O  O8  1  0.67541950  0.25676621  0.13599105  1
  O  O9  1  0.34266980  0.83005731  0.46990645  1
  O  O10  1  0.34205698  0.41937651  0.46890505  1
  O  O11  1  0.00907012  0.50406908  0.80340599  1
