# generated using pymatgen
data_NaSr3Sb2
_symmetry_space_group_name_H-M   'P 1'
_cell_length_a   5.70152675
_cell_length_b   5.70328880
_cell_length_c   7.23417820
_cell_angle_alpha   89.98702218
_cell_angle_beta   89.99559748
_cell_angle_gamma   119.93823943
_symmetry_Int_Tables_number   1
_chemical_formula_structural   NaSr3Sb2
_chemical_formula_sum   'Na1 Sr3 Sb2'
_cell_volume   203.84792035
_cell_formula_units_Z   1
loop_
 _symmetry_equiv_pos_site_id
 _symmetry_equiv_pos_as_xyz
  1  'x, y, z'
loop_
 _atom_site_type_symbol
 _atom_site_label
 _atom_site_symmetry_multiplicity
 _atom_site_fract_x
 _atom_site_fract_y
 _atom_site_fract_z
 _atom_site_occupancy
  Na  Na0  1  0.33145520  0.17891726  0.36192904  1
  Sr  Sr1  1  0.33167325  0.17881482  0.86174714  1
  Sr  Sr2  1  0.66497811  0.84538952  0.15323390  1
  Sr  Sr3  1  0.99840210  0.51240076  0.57021477  1
  Sb  Sb4  1  0.99838346  0.51171214  0.08298781  1
  Sb  Sb5  1  0.66481744  0.84586955  0.64043798  1
