data_image0
_chemical_formula_structural       Nb2SeOSe
_chemical_formula_sum              "Nb2 Se2 O1"
_cell_length_a       3.3875329520116817
_cell_length_b       3.4052953143266076
_cell_length_c       9.638142585754395
_cell_angle_alpha    89.664571924824
_cell_angle_beta     90.1177618030539
_cell_angle_gamma    120.00720632546987

_space_group_name_H-M_alt    "P 1"
_space_group_IT_number       1

loop_
  _space_group_symop_operation_xyz
  'x, y, z'

loop_
  _atom_site_type_symbol
  _atom_site_label
  _atom_site_symmetry_multiplicity
  _atom_site_fract_x
  _atom_site_fract_y
  _atom_site_fract_z
  _atom_site_occupancy
  Nb  Nb1       1.0  0.8704356551170349  0.02147512137889862  0.055974077433347695  1.0000
  Nb  Nb2       1.0  0.5375490784645081  0.3540928363800049  0.809013307094574  1.0000
  Se  Se1       1.0  0.5394555330276489  0.35267010331153864  0.23659004271030423  1.0000
  O   O1        1.0  0.2047869712114334  0.6864456534385681  0.9320489168167113  1.0000
  Se  Se2       1.0  0.8744322061538696  0.02095632441341877  0.6275257468223572  1.0000
