# generated using pymatgen
data_Nb8B3Ru2C
_symmetry_space_group_name_H-M   'P 1'
_cell_length_a   3.26947995
_cell_length_b   6.60223450
_cell_length_c   9.12644167
_cell_angle_alpha   89.94281140
_cell_angle_beta   89.99826987
_cell_angle_gamma   89.99935178
_symmetry_Int_Tables_number   1
_chemical_formula_structural   Nb8B3Ru2C
_chemical_formula_sum   'Nb8 B3 Ru2 C1'
_cell_volume   197.00211591
_cell_formula_units_Z   1
loop_
 _symmetry_equiv_pos_site_id
 _symmetry_equiv_pos_as_xyz
  1  'x, y, z'
loop_
 _atom_site_type_symbol
 _atom_site_label
 _atom_site_symmetry_multiplicity
 _atom_site_fract_x
 _atom_site_fract_y
 _atom_site_fract_z
 _atom_site_occupancy
  Nb  Nb0  1  0.63416916  0.80600821  0.52469466  1
  Nb  Nb1  1  0.13419833  -0.00435103  0.04830712  1
  Nb  Nb2  1  0.13416183  0.08735507  0.71103656  1
  Nb  Nb3  1  0.63419333  0.33731911  0.95149815  1
  Nb  Nb4  1  0.13418000  0.53963665  0.69029853  1
  Nb  Nb5  1  0.63417306  0.33281261  0.46095346  1
  Nb  Nb6  1  0.63419045  0.70037679  0.20864053  1
  Nb  Nb7  1  0.63419656  0.77803057  0.87206768  1
  B  B8  1  0.13420028  0.60343530  0.01998759  1
  B  B9  1  0.63416698  0.12883825  0.20772822  1
  B  B10  1  0.13413395  0.59427440  0.41002448  1
  Ru  Ru11  1  0.13416006  0.00888831  0.35963601  1
  Ru  Ru12  1  0.13417833  0.36956711  0.20967060  1
  C  C13  1  0.63417347  0.30590159  0.70663485  1
