data_image0
_chemical_formula_structural       I5NbI3Nb
_chemical_formula_sum              "I8 Nb2"
_cell_length_a       8.167427763727845
_cell_length_b       8.220568375255978
_cell_length_c       7.3370866775512695
_cell_angle_alpha    64.2831074780077
_cell_angle_beta     64.0909632501442
_cell_angle_gamma    64.99042302720322

_space_group_name_H-M_alt    "P 1"
_space_group_IT_number       1

loop_
  _space_group_symop_operation_xyz
  'x, y, z'

loop_
  _atom_site_type_symbol
  _atom_site_label
  _atom_site_symmetry_multiplicity
  _atom_site_fract_x
  _atom_site_fract_y
  _atom_site_fract_z
  _atom_site_occupancy
  I   I1        1.0  0.7482545375823976  0.19889724254608154  0.4545522928237915  1.0000
  I   I2        1.0  0.7850933670997621  0.707869052886963  0.4399322271347045  1.0000
  I   I3        1.0  0.24774055182933805  0.7168037295341493  0.9488099813461304  1.0000
  I   I4        1.0  0.7872745990753175  0.1654683351516724  0.953840434551239  1.0000
  I   I5        1.0  0.2460283935070038  0.1729629635810852  0.46489524841308594  1.0000
  Nb  Nb1       1.0  0.013655323535203935  0.9421294331550598  0.6622751355171201  1.0000
  I   I6        1.0  0.2417382895946503  0.17693039774894714  0.9898711442947388  1.0000
  I   I7        1.0  0.7850733399391175  0.7087581753730774  0.932125151157379  1.0000
  I   I8        1.0  0.2820151448249817  0.6850284337997437  0.44835597276687617  1.0000
  Nb  Nb2       1.0  0.014401167631149294  0.9384936094284058  0.2420191019773482  1.0000
