# generated using pymatgen
data_NbRu2W
_symmetry_space_group_name_H-M   'P 1'
_cell_length_a   4.10489172
_cell_length_b   4.10564332
_cell_length_c   4.68658180
_cell_angle_alpha   116.04962400
_cell_angle_beta   116.05082339
_cell_angle_gamma   89.99747193
_symmetry_Int_Tables_number   1
_chemical_formula_structural   NbRu2W
_chemical_formula_sum   'Nb1 Ru2 W1'
_cell_volume   61.90532213
_cell_formula_units_Z   1
loop_
 _symmetry_equiv_pos_site_id
 _symmetry_equiv_pos_as_xyz
  1  'x, y, z'
loop_
 _atom_site_type_symbol
 _atom_site_label
 _atom_site_symmetry_multiplicity
 _atom_site_fract_x
 _atom_site_fract_y
 _atom_site_fract_z
 _atom_site_occupancy
  Nb  Nb0  1  0.55151862  0.17070937  0.53337949  1
  Ru  Ru1  1  0.80141019  0.92057837  0.03322362  1
  Ru  Ru2  1  0.30130297  0.42102704  0.03355107  1
  W  W3  1  0.05142868  0.67076110  0.53339461  1
