# generated using pymatgen
data_NbSi
_symmetry_space_group_name_H-M   'P 1'
_cell_length_a   3.53006806
_cell_length_b   7.05254336
_cell_length_c   13.20411628
_cell_angle_alpha   84.74013280
_cell_angle_beta   97.68366292
_cell_angle_gamma   90.00212973
_symmetry_Int_Tables_number   1
_chemical_formula_structural   NbSi
_chemical_formula_sum   'Nb10 Si10'
_cell_volume   324.38091477
_cell_formula_units_Z   10
loop_
 _symmetry_equiv_pos_site_id
 _symmetry_equiv_pos_as_xyz
  1  'x, y, z'
loop_
 _atom_site_type_symbol
 _atom_site_label
 _atom_site_symmetry_multiplicity
 _atom_site_fract_x
 _atom_site_fract_y
 _atom_site_fract_z
 _atom_site_occupancy
  Nb  Nb0  1  0.50915105  0.29161941  0.98570356  1
  Nb  Nb1  1  0.41161876  0.63103061  0.79071156  1
  Nb  Nb2  1  0.99006084  0.68729510  0.94751074  1
  Nb  Nb3  1  0.85672979  0.91312124  0.68066426  1
  Nb  Nb4  1  0.11784724  0.76756201  0.20291165  1
  Nb  Nb5  1  0.72165222  0.87338867  0.41042286  1
  Nb  Nb6  1  0.29327471  0.66778681  0.55382781  1
  Nb  Nb7  1  0.76765657  0.33359100  0.50286889  1
  Nb  Nb8  1  0.64507130  0.36489565  0.25753187  1
  Nb  Nb9  1  0.37050764  0.24463196  0.70847309  1
  Si  Si10  1  0.28225190  0.04911141  0.53183819  1
  Si  Si11  1  0.93667119  0.35770763  0.84096559  1
  Si  Si12  1  0.07297743  0.41115470  0.11331752  1
  Si  Si13  1  0.44974332  0.97298565  0.86700194  1
  Si  Si14  1  0.20433931  0.53305451  0.37558079  1
  Si  Si15  1  0.85020629  0.51226517  0.66780462  1
  Si  Si16  1  0.59922272  0.04669246  0.16566891  1
  Si  Si17  1  0.55991087  0.64344023  0.08715109  1
  Si  Si18  1  0.02792024  0.01117358  0.02351843  1
  Si  Si19  1  0.16905513  0.09139465  0.30548145  1
