data_image0
_chemical_formula_structural       SNbTe2MoTe3SW
_chemical_formula_sum              "S2 Nb1 Te5 Mo1 W1"
_cell_length_a       3.579525075190544
_cell_length_b       3.6042611540755947
_cell_length_c       25.113201141357422
_cell_angle_alpha    93.78842845226407
_cell_angle_beta     86.03798753033122
_cell_angle_gamma    120.44161381010548

_space_group_name_H-M_alt    "P 1"
_space_group_IT_number       1

loop_
  _space_group_symop_operation_xyz
  'x, y, z'

loop_
  _atom_site_type_symbol
  _atom_site_label
  _atom_site_symmetry_multiplicity
  _atom_site_fract_x
  _atom_site_fract_y
  _atom_site_fract_z
  _atom_site_occupancy
  S   S1        1.0  0.634568989276886  0.5232948660850525  0.41511380672454834  1.0000
  Nb  Nb1       1.0  0.4158077538013458  0.7443807721138  0.06029792129993439  1.0000
  Te  Te1       1.0  0.20049187541007998  0.954738974571228  0.702130913734436  1.0000
  Te  Te2       1.0  0.060017865151166916  0.10450117290019989  0.13180947303771973  1.0000
  Mo  Mo1       1.0  0.8427093029022217  0.31270942091941833  0.7755493521690369  1.0000
  Te  Te3       1.0  0.6787269115447998  0.48459601402282715  0.2826023995876312  1.0000
  Te  Te4       1.0  0.919227659702301  0.23497138917446134  0.5564462542533875  1.0000
  Te  Te5       1.0  0.14972569048404694  0.004527262412011623  0.8477927446365356  1.0000
  S   S2        1.0  0.7672104835510254  0.3928447365760803  0.003070252714678646  1.0000
  W   W1        1.0  0.986716091632843  0.1719450205564499  0.3546747863292694  1.0000
