# generated using pymatgen
data_Nd2SO2
_symmetry_space_group_name_H-M   'P 1'
_cell_length_a   3.78281196
_cell_length_b   6.11323620
_cell_length_c   8.06954154
_cell_angle_alpha   90.00513414
_cell_angle_beta   103.56398080
_cell_angle_gamma   90.00734105
_symmetry_Int_Tables_number   1
_chemical_formula_structural   Nd2SO2
_chemical_formula_sum   'Nd4 S2 O4'
_cell_volume   181.40513788
_cell_formula_units_Z   2
loop_
 _symmetry_equiv_pos_site_id
 _symmetry_equiv_pos_as_xyz
  1  'x, y, z'
loop_
 _atom_site_type_symbol
 _atom_site_label
 _atom_site_symmetry_multiplicity
 _atom_site_fract_x
 _atom_site_fract_y
 _atom_site_fract_z
 _atom_site_occupancy
  Nd  Nd0  1  0.28682317  0.64939373  0.25989760  1
  Nd  Nd1  1  0.99396014  0.65842246  0.67510544  1
  Nd  Nd2  1  0.67526865  0.15825692  0.03797800  1
  Nd  Nd3  1  0.38261924  0.14943705  0.45319832  1
  S  S4  1  0.64044068  0.66924780  0.96762629  1
  S  S5  1  0.02893742  0.16935858  0.74544846  1
  O  O6  1  0.86361482  0.45806579  0.41467051  1
  O  O7  1  0.80540674  0.95799938  0.29842218  1
  O  O8  1  0.24010603  0.28231243  0.16758332  1
  O  O9  1  0.42914088  0.78243487  0.54550862  1
