data_image0
_chemical_formula_structural       Nd3RhNd2RhNd
_chemical_formula_sum              "Nd6 Rh2"
_cell_length_a       3.847893592303824
_cell_length_b       7.499706741934172
_cell_length_c       8.857477188110352
_cell_angle_alpha    77.21774718551437
_cell_angle_beta     90.25230969205083
_cell_angle_gamma    90.39298427791364

_space_group_name_H-M_alt    "P 1"
_space_group_IT_number       1

loop_
  _space_group_symop_operation_xyz
  'x, y, z'

loop_
  _atom_site_type_symbol
  _atom_site_label
  _atom_site_symmetry_multiplicity
  _atom_site_fract_x
  _atom_site_fract_y
  _atom_site_fract_z
  _atom_site_occupancy
  Nd  Nd1       1.0  0.07092301547527313  0.2981059551239014  0.2947154641151428  1.0000
  Nd  Nd2       1.0  0.5747689604759216  0.12346867471933366  0.005660011433064938  1.0000
  Nd  Nd3       1.0  0.5719884037971497  0.46649813652038574  0.621035635471344  1.0000
  Rh  Rh1       1.0  0.07285234332084656  0.41172471642494207  0.8765698075294495  1.0000
  Nd  Nd4       1.0  0.07259417325258255  0.955765962600708  0.6833935379981995  1.0000
  Nd  Nd5       1.0  0.5730987787246704  0.6307242512702943  0.9979090690612793  1.0000
  Rh  Rh2       1.0  0.5720054507255554  0.012042652815580368  0.42905962467193604  1.0000
  Nd  Nd6       1.0  0.07320739328861237  0.7918221950531006  0.3112281858921051  1.0000
