# generated using pymatgen
data_NdAsPt3
_symmetry_space_group_name_H-M   'P 1'
_cell_length_a   4.24083023
_cell_length_b   4.31151862
_cell_length_c   5.54450674
_cell_angle_alpha   90.00318239
_cell_angle_beta   89.99561445
_cell_angle_gamma   90.00403075
_symmetry_Int_Tables_number   1
_chemical_formula_structural   NdAsPt3
_chemical_formula_sum   'Nd1 As1 Pt3'
_cell_volume   101.37808086
_cell_formula_units_Z   1
loop_
 _symmetry_equiv_pos_site_id
 _symmetry_equiv_pos_as_xyz
  1  'x, y, z'
loop_
 _atom_site_type_symbol
 _atom_site_label
 _atom_site_symmetry_multiplicity
 _atom_site_fract_x
 _atom_site_fract_y
 _atom_site_fract_z
 _atom_site_occupancy
  Nd  Nd0  1  0.67569229  0.31403436  0.58175188  1
  As  As1  1  0.17571856  0.32438878  0.08240130  1
  Pt  Pt2  1  0.17575812  0.85815928  0.34909491  1
  Pt  Pt3  1  0.67574583  0.61327408  0.08167832  1
  Pt  Pt4  1  0.17581004  0.85889326  0.81515057  1
