# generated using pymatgen
data_NdCoGe3
_symmetry_space_group_name_H-M   'P 1'
_cell_length_a   4.32475592
_cell_length_b   4.32438752
_cell_length_c   5.81720871
_cell_angle_alpha   111.80993843
_cell_angle_beta   111.82019583
_cell_angle_gamma   89.99996835
_symmetry_Int_Tables_number   1
_chemical_formula_structural   NdCoGe3
_chemical_formula_sum   'Nd1 Co1 Ge3'
_cell_volume   92.55777453
_cell_formula_units_Z   1
loop_
 _symmetry_equiv_pos_site_id
 _symmetry_equiv_pos_as_xyz
  1  'x, y, z'
loop_
 _atom_site_type_symbol
 _atom_site_label
 _atom_site_symmetry_multiplicity
 _atom_site_fract_x
 _atom_site_fract_y
 _atom_site_fract_z
 _atom_site_occupancy
  Nd  Nd0  1  0.90316863  0.66257216  0.58351569  1
  Co  Co1  1  0.56973917  0.32949797  0.91632509  1
  Ge  Ge2  1  0.33875038  0.09810172  0.45466290  1
  Ge  Ge3  1  0.16216016  0.42207120  0.10120902  1
  Ge  Ge4  1  0.66257962  0.92182366  0.10118540  1
