# generated using pymatgen
data_NdNiP
_symmetry_space_group_name_H-M   'P 1'
_cell_length_a   3.96797431
_cell_length_b   6.87563638
_cell_length_c   8.09498850
_cell_angle_alpha   89.99975087
_cell_angle_beta   89.99974236
_cell_angle_gamma   89.99849940
_symmetry_Int_Tables_number   1
_chemical_formula_structural   NdNiP
_chemical_formula_sum   'Nd4 Ni4 P4'
_cell_volume   220.85029774
_cell_formula_units_Z   4
loop_
 _symmetry_equiv_pos_site_id
 _symmetry_equiv_pos_as_xyz
  1  'x, y, z'
loop_
 _atom_site_type_symbol
 _atom_site_label
 _atom_site_symmetry_multiplicity
 _atom_site_fract_x
 _atom_site_fract_y
 _atom_site_fract_z
 _atom_site_occupancy
  Nd  Nd0  1  0.84626226  0.87974333  0.43730861  1
  Nd  Nd1  1  0.34627248  0.37938911  0.43754082  1
  Nd  Nd2  1  0.34625655  0.37909449  0.93753134  1
  Nd  Nd3  1  0.84566938  0.87871593  0.93726241  1
  Ni  Ni4  1  0.34623159  0.04553694  0.18715313  1
  Ni  Ni5  1  0.34620398  0.04544114  0.68757055  1
  Ni  Ni6  1  0.84603795  0.54553993  0.18752855  1
  Ni  Ni7  1  0.84611329  0.54544485  0.68705789  1
  P  P8  1  0.84625883  0.21238704  0.68792612  1
  P  P9  1  0.84627852  0.21246206  0.18749623  1
  P  P10  1  0.34607105  0.71235827  0.68697099  1
  P  P11  1  0.34601247  0.71246128  0.18736283  1
