# generated using pymatgen
data_NF7
_symmetry_space_group_name_H-M   'P 1'
_cell_length_a   5.03295374
_cell_length_b   5.06620147
_cell_length_c   5.02261431
_cell_angle_alpha   80.23970536
_cell_angle_beta   82.10403353
_cell_angle_gamma   96.34921863
_symmetry_Int_Tables_number   1
_chemical_formula_structural   NF7
_chemical_formula_sum   'N1 F7'
_cell_volume   123.83486952
_cell_formula_units_Z   1
loop_
 _symmetry_equiv_pos_site_id
 _symmetry_equiv_pos_as_xyz
  1  'x, y, z'
loop_
 _atom_site_type_symbol
 _atom_site_label
 _atom_site_symmetry_multiplicity
 _atom_site_fract_x
 _atom_site_fract_y
 _atom_site_fract_z
 _atom_site_occupancy
  N  N0  1  0.75351911  0.89012534  -0.00510240  1
  F  F1  1  0.60715696  0.94217678  0.23613490  1
  F  F2  1  0.16427673  0.68377033  0.63859257  1
  F  F3  1  0.00878026  0.37477086  0.22478104  1
  F  F4  1  0.62602872  0.63111942  0.98683603  1
  F  F5  1  0.18123448  0.16923677  0.25257694  1
  F  F6  1  0.64797546  0.05405847  0.79032685  1
  F  F7  1  0.27682910  0.43644602  0.66601721  1
