data_image0
_chemical_formula_structural       PNi4MoP2Ni2Mo2
_chemical_formula_sum              "P3 Ni6 Mo3"
_cell_length_a       2.9262218312819823
_cell_length_b       2.9061785703175698
_cell_length_c       21.243515014648438
_cell_angle_alpha    89.9725178255609
_cell_angle_beta     89.83493733231103
_cell_angle_gamma    120.96957766212371

_space_group_name_H-M_alt    "P 1"
_space_group_IT_number       1

loop_
  _space_group_symop_operation_xyz
  'x, y, z'

loop_
  _atom_site_type_symbol
  _atom_site_label
  _atom_site_symmetry_multiplicity
  _atom_site_fract_x
  _atom_site_fract_y
  _atom_site_fract_z
  _atom_site_occupancy
  P   P1        1.0  0.6988202333450317  0.20846574008464813  0.44774967432022095  1.0000
  Ni  Ni1       1.0  0.03561721742153168  0.8728823661804199  0.7907581329345703  1.0000
  Ni  Ni2       1.0  0.03642831742763519  0.8703097701072693  0.37881845235824585  1.0000
  Ni  Ni3       1.0  0.7003543972969055  0.20138682425022122  0.004389858338981867  1.0000
  Ni  Ni4       1.0  0.031048158183693886  0.8800880908966064  0.5165615081787109  1.0000
  Mo  Mo1       1.0  0.6919894814491272  0.19763486087322235  0.2812805771827698  1.0000
  P   P2        1.0  0.02782048098742962  0.8649848699569702  0.19622133672237396  1.0000
  P   P3        1.0  0.36803850531578064  0.5297676920890808  0.9392394423484801  1.0000
  Ni  Ni5       1.0  0.35696208477020264  0.5480303168296814  0.6019167304039001  1.0000
  Ni  Ni6       1.0  0.7061825394630432  0.20119155943393707  0.8718027472496033  1.0000
  Mo  Mo2       1.0  0.696565568447113  0.21123665571212766  0.6958203911781311  1.0000
  Mo  Mo3       1.0  0.360379159450531  0.529619038105011  0.10408394038677216  1.0000
