# generated using pymatgen
data_Ni3Sb
_symmetry_space_group_name_H-M   'P 1'
_cell_length_a   3.72404742
_cell_length_b   3.72282074
_cell_length_c   3.72294975
_cell_angle_alpha   89.92812139
_cell_angle_beta   89.96471288
_cell_angle_gamma   89.96333375
_symmetry_Int_Tables_number   1
_chemical_formula_structural   Ni3Sb
_chemical_formula_sum   'Ni3 Sb1'
_cell_volume   51.61476904
_cell_formula_units_Z   1
loop_
 _symmetry_equiv_pos_site_id
 _symmetry_equiv_pos_as_xyz
  1  'x, y, z'
loop_
 _atom_site_type_symbol
 _atom_site_label
 _atom_site_symmetry_multiplicity
 _atom_site_fract_x
 _atom_site_fract_y
 _atom_site_fract_z
 _atom_site_occupancy
  Ni  Ni0  1  0.48946185  0.10837237  0.83742327  1
  Ni  Ni1  1  0.98956525  0.10823509  0.33782761  1
  Ni  Ni2  1  0.48936692  0.60737073  0.33813767  1
  Sb  Sb3  1  0.98949966  0.60803624  0.83788254  1
