data_image0
_chemical_formula_structural       Ni2SnNiP4
_chemical_formula_sum              "Ni3 Sn1 P4"
_cell_length_a       5.282953467790107
_cell_length_b       5.3592136358694695
_cell_length_c       5.335456848144531
_cell_angle_alpha    89.53283122417727
_cell_angle_beta     89.69944686411816
_cell_angle_gamma    89.70959652453715

_space_group_name_H-M_alt    "P 1"
_space_group_IT_number       1

loop_
  _space_group_symop_operation_xyz
  'x, y, z'

loop_
  _atom_site_type_symbol
  _atom_site_label
  _atom_site_symmetry_multiplicity
  _atom_site_fract_x
  _atom_site_fract_y
  _atom_site_fract_z
  _atom_site_occupancy
  Ni  Ni1       1.0  0.2888873219490051  0.552619457244873  0.24338921904563904  1.0000
  Ni  Ni2       1.0  0.7913349270820618  0.052085459232330315  0.2441779226064682  1.0000
  Sn  Sn1       1.0  0.2929348051548004  0.052441984415054314  0.7440842390060425  1.0000
  Ni  Ni3       1.0  0.7864400744438171  0.5501492619514465  0.7440779209136964  1.0000
  P   P1        1.0  0.01243030745536089  0.7743449211120605  0.4693105220794678  1.0000
  P   P2        1.0  0.014737740159034729  0.32884305715560913  0.020652614533901215  1.0000
  P   P3        1.0  0.5698010325431824  0.7745980620384216  0.025248557329177856  1.0000
  P   P4        1.0  0.5679376125335693  0.33113017678260803  0.46431344747543335  1.0000
