# generated using pymatgen
data_NiBi
_symmetry_space_group_name_H-M   'P 1'
_cell_length_a   3.73849199
_cell_length_b   4.06514166
_cell_length_c   5.37384333
_cell_angle_alpha   90.01416027
_cell_angle_beta   110.36707658
_cell_angle_gamma   89.98440413
_symmetry_Int_Tables_number   1
_chemical_formula_structural   NiBi
_chemical_formula_sum   'Ni2 Bi2'
_cell_volume   76.56320688
_cell_formula_units_Z   2
loop_
 _symmetry_equiv_pos_site_id
 _symmetry_equiv_pos_as_xyz
  1  'x, y, z'
loop_
 _atom_site_type_symbol
 _atom_site_label
 _atom_site_symmetry_multiplicity
 _atom_site_fract_x
 _atom_site_fract_y
 _atom_site_fract_z
 _atom_site_occupancy
  Ni  Ni0  1  0.00754007  0.17489458  0.34130355  1
  Ni  Ni1  1  0.85636389  0.67473118  0.04080675  1
  Bi  Bi2  1  0.29220512  0.17482363  0.91180384  1
  Bi  Bi3  1  0.57159746  0.67498187  0.47007752  1
