# generated using pymatgen
data_NiO
_symmetry_space_group_name_H-M   'P 1'
_cell_length_a   2.98610399
_cell_length_b   2.98680808
_cell_length_c   6.68828472
_cell_angle_alpha   77.05882064
_cell_angle_beta   77.09757572
_cell_angle_gamma   90.02218897
_symmetry_Int_Tables_number   1
_chemical_formula_structural   NiO
_chemical_formula_sum   'Ni3 O3'
_cell_volume   56.58948671
_cell_formula_units_Z   3
loop_
 _symmetry_equiv_pos_site_id
 _symmetry_equiv_pos_as_xyz
  1  'x, y, z'
loop_
 _atom_site_type_symbol
 _atom_site_label
 _atom_site_symmetry_multiplicity
 _atom_site_fract_x
 _atom_site_fract_y
 _atom_site_fract_z
 _atom_site_occupancy
  Ni  Ni0  1  0.74869026  0.29130390  0.28530465  1
  Ni  Ni1  1  0.41572510  0.95857370  0.95190143  1
  Ni  Ni2  1  0.08216180  0.62385567  0.61872488  1
  O  O3  1  0.91591219  0.45835423  0.95177834  1
  O  O4  1  0.24915650  0.79156861  0.28489250  1
  O  O5  1  0.58205122  0.12352628  0.61880068  1
