data_image0
_chemical_formula_structural       NiSn3
_chemical_formula_sum              "Ni1 Sn3"
_cell_length_a       5.303868378094099
_cell_length_b       4.368556514193346
_cell_length_c       4.374162197113037
_cell_angle_alpha    120.40668907424939
_cell_angle_beta     89.84600223565774
_cell_angle_gamma    90.21110317617318

_space_group_name_H-M_alt    "P 1"
_space_group_IT_number       1

loop_
  _space_group_symop_operation_xyz
  'x, y, z'

loop_
  _atom_site_type_symbol
  _atom_site_label
  _atom_site_symmetry_multiplicity
  _atom_site_fract_x
  _atom_site_fract_y
  _atom_site_fract_z
  _atom_site_occupancy
  Ni  Ni1       1.0  0.6069353818893433  0.09526633471250534  0.795167088508606  1.0000
  Sn  Sn1       1.0  0.7753717303276062  0.7621701359748839  0.1308040022850036  1.0000
  Sn  Sn2       1.0  0.4376612603664398  0.4279047548770904  0.4645707905292511  1.0000
  Sn  Sn3       1.0  0.10717054456472397  0.09292147308588027  0.7976073622703552  1.0000
