# generated using pymatgen
data_Pb2O7
_symmetry_space_group_name_H-M   'P 1'
_cell_length_a   3.99184023
_cell_length_b   4.10840884
_cell_length_c   10.41363454
_cell_angle_alpha   93.14808507
_cell_angle_beta   97.76768773
_cell_angle_gamma   120.90975413
_symmetry_Int_Tables_number   1
_chemical_formula_structural   Pb2O7
_chemical_formula_sum   'Pb2 O7'
_cell_volume   143.62344702
_cell_formula_units_Z   1
loop_
 _symmetry_equiv_pos_site_id
 _symmetry_equiv_pos_as_xyz
  1  'x, y, z'
loop_
 _atom_site_type_symbol
 _atom_site_label
 _atom_site_symmetry_multiplicity
 _atom_site_fract_x
 _atom_site_fract_y
 _atom_site_fract_z
 _atom_site_occupancy
  Pb  Pb0  1  0.26051065  0.95986717  0.56743127  1
  Pb  Pb1  1  0.75848545  0.15925936  0.27469319  1
  O  O2  1  0.11590151  0.85618247  0.34619647  1
  O  O3  1  0.83573487  0.72205910  0.85010615  1
  O  O4  1  0.90501496  0.27368972  0.52115631  1
  O  O5  1  0.22754483  0.44242533  0.00531952  1
  O  O6  1  0.36745201  0.44135195  0.13767568  1
  O  O7  1  0.86390095  0.16673456  0.95886958  1
  O  O8  1  0.75087441  0.72268431  0.72768741  1
