data_image0
_chemical_formula_structural       Se2Pd3Se2Pd2
_chemical_formula_sum              "Se4 Pd5"
_cell_length_a       4.0578415490072715
_cell_length_b       7.14978101142685
_cell_length_c       7.128173351287842
_cell_angle_alpha    110.34156196733403
_cell_angle_beta     90.1227205142895
_cell_angle_gamma    89.96124118277525

_space_group_name_H-M_alt    "P 1"
_space_group_IT_number       1

loop_
  _space_group_symop_operation_xyz
  'x, y, z'

loop_
  _atom_site_type_symbol
  _atom_site_label
  _atom_site_symmetry_multiplicity
  _atom_site_fract_x
  _atom_site_fract_y
  _atom_site_fract_z
  _atom_site_occupancy
  Se  Se1       1.0  0.19853056967258453  0.8261281847953797  0.5918383598327637  1.0000
  Se  Se2       1.0  0.6991203427314758  0.8152928352355958  0.09277398139238359  1.0000
  Pd  Pd1       1.0  0.6984927654266357  0.9418199062347412  0.4687943160533906  1.0000
  Pd  Pd2       1.0  0.6965172290802002  0.19653818011283875  0.21277335286140445  1.0000
  Pd  Pd3       1.0  0.1987696886062622  0.9387803077697754  0.9621440768241883  1.0000
  Se  Se3       1.0  0.6979026794433594  0.3223652243614197  0.5977278351783752  1.0000
  Se  Se4       1.0  0.19815149903297424  0.336133360862732  0.08940666913986209  1.0000
  Pd  Pd4       1.0  0.6957097053527832  0.4523704648017884  0.9595158100128175  1.0000
  Pd  Pd5       1.0  0.19681453704833984  0.45632436871528625  0.47883990406990057  1.0000
