data_image0
_chemical_formula_structural       PrIrPr9IrPr3
_chemical_formula_sum              "Pr13 Ir2"
_cell_length_a       3.8243977191409915
_cell_length_b       12.934324663156081
_cell_length_c       12.420036315917969
_cell_angle_alpha    121.00686838136485
_cell_angle_beta     98.7884073287989
_cell_angle_gamma    98.54329915507873

_space_group_name_H-M_alt    "P 1"
_space_group_IT_number       1

loop_
  _space_group_symop_operation_xyz
  'x, y, z'

loop_
  _atom_site_type_symbol
  _atom_site_label
  _atom_site_symmetry_multiplicity
  _atom_site_fract_x
  _atom_site_fract_y
  _atom_site_fract_z
  _atom_site_occupancy
  Pr  Pr1       1.0  0.2129678875207901  0.9233563542366028  0.46149876713752747  1.0000
  Ir  Ir1       1.0  0.17023946344852448  0.6491321921348572  0.65374755859375  1.0000
  Pr  Pr2       1.0  0.2277272641658783  0.5275965929031372  0.8951189517974854  1.0000
  Pr  Pr3       1.0  0.5227242112159729  0.8406147956848145  0.16399411857128143  1.0000
  Pr  Pr4       1.0  0.910643994808197  0.5952560305595398  0.18474502861499786  1.0000
  Pr  Pr5       1.0  0.8746404647827148  0.3922937512397766  0.32013773918151855  1.0000
  Pr  Pr6       1.0  0.62873774766922  0.700742781162262  0.514506459236145  1.0000
  Pr  Pr7       1.0  0.5113650560379028  0.2379607409238815  0.7334185242652893  1.0000
  Pr  Pr8       1.0  0.8208779096603394  0.1562395542860031  0.4376921057701111  1.0000
  Pr  Pr9       1.0  0.4224020540714263  0.9830276370048522  0.8172321319580078  1.0000
  Pr  Pr10      1.0  0.5462937951087952  0.45227423310279846  0.596982479095459  1.0000
  Ir  Ir2       1.0  0.8859761953353882  0.04392119497060776  0.6808775067329407  1.0000
  Pr  Pr11      1.0  0.1752202808856964  0.2896028459072113  0.010500197298824787  1.0000
  Pr  Pr12      1.0  0.13812796771526337  0.08962138742208481  0.1491738259792328  1.0000
  Pr  Pr13      1.0  0.8388291001319885  0.7625595927238464  0.8723737001419067  1.0000
