data_image0
_chemical_formula_structural       OBr2Pr2
_chemical_formula_sum              "O1 Br2 Pr2"
_cell_length_a       3.8203213224448103
_cell_length_b       3.866923344082953
_cell_length_c       9.06184196472168
_cell_angle_alpha    90.75899360769027
_cell_angle_beta     90.5580426491897
_cell_angle_gamma    91.86553895531004

_space_group_name_H-M_alt    "P 1"
_space_group_IT_number       1

loop_
  _space_group_symop_operation_xyz
  'x, y, z'

loop_
  _atom_site_type_symbol
  _atom_site_label
  _atom_site_symmetry_multiplicity
  _atom_site_fract_x
  _atom_site_fract_y
  _atom_site_fract_z
  _atom_site_occupancy
  O   O1        1.0  0.959374725818634  0.44252681732177734  0.7063381671905518  1.0000
  Br  Br1       1.0  0.958474338054657  0.9418323636054993  0.37630194425582886  1.0000
  Br  Br2       1.0  0.45845985412597656  0.4422448575496674  0.034713998436927795  1.0000
  Pr  Pr1       1.0  0.45862245559692383  0.4422253370285035  0.5561386346817017  1.0000
  Pr  Pr2       1.0  0.957282543182373  0.9426867365837098  0.8550986647605896  1.0000
