# generated using pymatgen
data_Pr2Ge5Ir4
_symmetry_space_group_name_H-M   'P 1'
_cell_length_a   4.10581484
_cell_length_b   6.02083707
_cell_length_c   9.39956815
_cell_angle_alpha   84.09083879
_cell_angle_beta   89.97146831
_cell_angle_gamma   109.93219151
_symmetry_Int_Tables_number   1
_chemical_formula_structural   Pr2Ge5Ir4
_chemical_formula_sum   'Pr2 Ge5 Ir4'
_cell_volume   217.12407388
_cell_formula_units_Z   1
loop_
 _symmetry_equiv_pos_site_id
 _symmetry_equiv_pos_as_xyz
  1  'x, y, z'
loop_
 _atom_site_type_symbol
 _atom_site_label
 _atom_site_symmetry_multiplicity
 _atom_site_fract_x
 _atom_site_fract_y
 _atom_site_fract_z
 _atom_site_occupancy
  Pr  Pr0  1  0.48920647  0.17440214  0.83374616  1
  Pr  Pr1  1  0.34314592  0.88089750  0.31472204  1
  Ge  Ge2  1  0.85346191  0.90146440  0.06073635  1
  Ge  Ge3  1  0.63285374  0.46157555  0.23051484  1
  Ge  Ge4  1  0.18755025  0.57072246  0.92504736  1
  Ge  Ge5  1  0.86224351  -0.07962376  0.57434923  1
  Ge  Ge6  1  0.63632831  0.46738106  0.52605141  1
  Ir  Ir7  1  0.05368974  0.30145414  0.42826936  1
  Ir  Ir8  1  0.21785352  0.63145467  0.64559655  1
  Ir  Ir9  1  0.04619969  0.28822173  0.13900141  1
  Ir  Ir10  1  0.78452751  0.76451054  0.82806769  1
