data_image0
_chemical_formula_structural       ZnCdPrSnAlPrAlPrAl2
_chemical_formula_sum              "Zn1 Cd1 Pr3 Sn1 Al4"
_cell_length_a       4.460957403744246
_cell_length_b       4.477649491754687
_cell_length_c       14.236788749694824
_cell_angle_alpha    90.05663159750718
_cell_angle_beta     90.34918910866588
_cell_angle_gamma    120.87633118038015

_space_group_name_H-M_alt    "P 1"
_space_group_IT_number       1

loop_
  _space_group_symop_operation_xyz
  'x, y, z'

loop_
  _atom_site_type_symbol
  _atom_site_label
  _atom_site_symmetry_multiplicity
  _atom_site_fract_x
  _atom_site_fract_y
  _atom_site_fract_z
  _atom_site_occupancy
  Zn  Zn1       1.0  0.7083339691162108  0.7262948155403136  0.7902773022651672  1.0000
  Cd  Cd1       1.0  0.7132242321968079  0.7246379256248474  0.0978737473487854  1.0000
  Pr  Pr1       1.0  0.712287187576294  0.7245950698852539  0.33048030734062195  1.0000
  Sn  Sn1       1.0  0.3784007132053375  0.05940599367022514  0.4856626689434051  1.0000
  Al  Al1       1.0  0.7102600336074828  0.7262642979621886  0.5589749813079834  1.0000
  Pr  Pr2       1.0  0.04249479621648789  0.3923269212245941  0.6666519045829773  1.0000
  Al  Al2       1.0  0.37828242778778076  0.06052011251449585  0.8211960792541504  1.0000
  Pr  Pr3       1.0  0.046786047518253306  0.39298376441001887  0.9600248336791992  1.0000
  Al  Al3       1.0  0.04630246758460998  0.3910713493824005  0.19508162140846252  1.0000
  Al  Al4       1.0  0.37911951541900635  0.05792860314249992  0.15327543020248413  1.0000
