# generated using pymatgen
data_Pr3Mg5Ni3
_symmetry_space_group_name_H-M   'P 1'
_cell_length_a   4.03271705
_cell_length_b   8.18238282
_cell_length_c   7.42548515
_cell_angle_alpha   84.08956521
_cell_angle_beta   90.00699596
_cell_angle_gamma   90.00199775
_symmetry_Int_Tables_number   1
_chemical_formula_structural   Pr3Mg5Ni3
_chemical_formula_sum   'Pr3 Mg5 Ni3'
_cell_volume   243.71796503
_cell_formula_units_Z   1
loop_
 _symmetry_equiv_pos_site_id
 _symmetry_equiv_pos_as_xyz
  1  'x, y, z'
loop_
 _atom_site_type_symbol
 _atom_site_label
 _atom_site_symmetry_multiplicity
 _atom_site_fract_x
 _atom_site_fract_y
 _atom_site_fract_z
 _atom_site_occupancy
  Pr  Pr0  1  0.68063599  0.28791982  0.34456619  1
  Pr  Pr1  1  0.68067876  0.15151581  0.85639803  1
  Pr  Pr2  1  0.68068485  0.61317776  0.68995626  1
  Mg  Mg3  1  0.18069669  0.42497230  0.99927466  1
  Mg  Mg4  1  0.18078599  0.97511429  0.54289183  1
  Mg  Mg5  1  0.68079931  0.88924053  0.25480742  1
  Mg  Mg6  1  0.18078086  0.61704133  0.33311263  1
  Mg  Mg7  1  0.18080772  0.81522442  0.96779368  1
  Ni  Ni8  1  0.18041614  0.35732437  0.62680563  1
  Ni  Ni9  1  0.68053226  0.60941235  0.09305441  1
  Ni  Ni10  1  0.18045648  0.09745814  0.15575959  1
