# generated using pymatgen
data_PrCuSi2Au
_symmetry_space_group_name_H-M   'P 1'
_cell_length_a   4.27905571
_cell_length_b   4.27845927
_cell_length_c   5.89584787
_cell_angle_alpha   111.20536322
_cell_angle_beta   111.28730351
_cell_angle_gamma   90.12563591
_symmetry_Int_Tables_number   1
_chemical_formula_structural   PrCuSi2Au
_chemical_formula_sum   'Pr1 Cu1 Si2 Au1'
_cell_volume   92.65123572
_cell_formula_units_Z   1
loop_
 _symmetry_equiv_pos_site_id
 _symmetry_equiv_pos_as_xyz
  1  'x, y, z'
loop_
 _atom_site_type_symbol
 _atom_site_label
 _atom_site_symmetry_multiplicity
 _atom_site_fract_x
 _atom_site_fract_y
 _atom_site_fract_z
 _atom_site_occupancy
  Pr  Pr0  1  0.21876361  0.81052755  0.09793079  1
  Cu  Cu1  1  0.58632090  0.17912266  0.83333611  1
  Si  Si2  1  0.97713188  0.06956955  0.61632188  1
  Si  Si3  1  0.47821035  0.57053288  0.61622329  1
  Au  Au4  1  0.84495771  0.43674496  0.35073908  1
