data_image0
_chemical_formula_structural       LuPrLuSe3TeLuSeLuSe
_chemical_formula_sum              "Lu4 Pr1 Se5 Te1"
_cell_length_a       4.057043137817256
_cell_length_b       4.057667897014287
_cell_length_c       20.297353744506836
_cell_angle_alpha    89.98367152128
_cell_angle_beta     90.11497507794482
_cell_angle_gamma    120.26832337137462

_space_group_name_H-M_alt    "P 1"
_space_group_IT_number       1

loop_
  _space_group_symop_operation_xyz
  'x, y, z'

loop_
  _atom_site_type_symbol
  _atom_site_label
  _atom_site_symmetry_multiplicity
  _atom_site_fract_x
  _atom_site_fract_y
  _atom_site_fract_z
  _atom_site_occupancy
  Lu  Lu1       1.0  0.29839885234832764  0.44702729582786566  0.704967737197876  1.0000
  Pr  Pr1       1.0  0.9648289680480957  0.7827883362770081  0.1740831881761551  1.0000
  Lu  Lu2       1.0  0.6329274773597717  0.11690806597471237  0.015783559530973434  1.0000
  Se  Se1       1.0  0.2986297905445099  0.4503576755523682  0.45707058906555176  1.0000
  Se  Se2       1.0  0.9658389091491699  0.7844585180282593  0.949325442314148  1.0000
  Se  Se3       1.0  0.2983148396015167  0.4500872194766999  0.09427601844072342  1.0000
  Te  Te1       1.0  0.6318550705909729  0.11632192134857179  0.28590667247772217  1.0000
  Lu  Lu3       1.0  0.9644318222999573  0.7836702466011047  0.3809302747249603  1.0000
  Se  Se4       1.0  0.6312101483345032  0.1147015765309334  0.7743369340896606  1.0000
  Lu  Lu4       1.0  0.6315430998802185  0.11516226083040237  0.538641631603241  1.0000
  Se  Se5       1.0  0.9652143120765686  0.7814743518829346  0.6170192956924438  1.0000
