# generated using pymatgen
data_PrLuHg2
_symmetry_space_group_name_H-M   'P 1'
_cell_length_a   5.32833572
_cell_length_b   5.33011843
_cell_length_c   5.32816457
_cell_angle_alpha   60.03880189
_cell_angle_beta   60.04915579
_cell_angle_gamma   60.04670264
_symmetry_Int_Tables_number   1
_chemical_formula_structural   PrLuHg2
_chemical_formula_sum   'Pr1 Lu1 Hg2'
_cell_volume   107.11065953
_cell_formula_units_Z   1
loop_
 _symmetry_equiv_pos_site_id
 _symmetry_equiv_pos_as_xyz
  1  'x, y, z'
loop_
 _atom_site_type_symbol
 _atom_site_label
 _atom_site_symmetry_multiplicity
 _atom_site_fract_x
 _atom_site_fract_y
 _atom_site_fract_z
 _atom_site_occupancy
  Pr  Pr0  1  0.95026185  0.48144385  0.38589523  1
  Lu  Lu1  1  0.44999023  0.98165252  0.88556215  1
  Hg  Hg2  1  0.20034528  0.73149366  0.63619044  1
  Hg  Hg3  1  0.70003487  0.23108272  0.13590182  1
