data_image0
_chemical_formula_structural       ORbORbOBi
_chemical_formula_sum              "O3 Rb2 Bi1"
_cell_length_a       3.78131023113674
_cell_length_b       3.7741953340796033
_cell_length_c       9.9937162399292
_cell_angle_alpha    89.95638491319801
_cell_angle_beta     90.32017446911918
_cell_angle_gamma    59.86817993611312

_space_group_name_H-M_alt    "P 1"
_space_group_IT_number       1

loop_
  _space_group_symop_operation_xyz
  'x, y, z'

loop_
  _atom_site_type_symbol
  _atom_site_label
  _atom_site_symmetry_multiplicity
  _atom_site_fract_x
  _atom_site_fract_y
  _atom_site_fract_z
  _atom_site_occupancy
  O   O1        1.0  0.4100986719131469  0.25100237131118774  0.247371107339859  1.0000
  Rb  Rb1       1.0  0.07448915392160416  0.9188201427459716  0.46069931983947754  1.0000
  O   O2        1.0  0.7429504990577698  0.5859989523887634  0.623000979423523  1.0000
  Rb  Rb2       1.0  0.4090533554553985  0.25334325432777405  0.7936133146286011  1.0000
  O   O3        1.0  0.07678449898958212  0.9178559780120848  0.007787900511175394  1.0000
  Bi  Bi1       1.0  0.7435916066169739  0.5841813087463379  0.12654046714305878  1.0000
