data_image0
_chemical_formula_structural       Rb4F6
_chemical_formula_sum              "Rb4 F6"
_cell_length_a       4.123479628404928
_cell_length_b       7.389131236464441
_cell_length_c       8.13843822479248
_cell_angle_alpha    94.99502946661492
_cell_angle_beta     89.74514082493407
_cell_angle_gamma    89.50296964317357

_space_group_name_H-M_alt    "P 1"
_space_group_IT_number       1

loop_
  _space_group_symop_operation_xyz
  'x, y, z'

loop_
  _atom_site_type_symbol
  _atom_site_label
  _atom_site_symmetry_multiplicity
  _atom_site_fract_x
  _atom_site_fract_y
  _atom_site_fract_z
  _atom_site_occupancy
  Rb  Rb1       1.0  0.2502445578575134  0.940364420413971  0.8327784538269043  1.0000
  Rb  Rb2       1.0  0.7501503825187683  0.4011113047599793  0.11588884145021439  1.0000
  Rb  Rb3       1.0  0.7521737217903137  0.4273845851421356  0.6194985508918762  1.0000
  Rb  Rb4       1.0  0.24817746877670288  0.9803349375724794  0.3339926302433014  1.0000
  F   F1        1.0  0.2494335025548935  0.3092619478702545  0.8601381778717041  1.0000
  F   F2        1.0  0.749665379524231  0.05336554348468781  0.587138831615448  1.0000
  F   F3        1.0  0.24931198358535767  0.3613592982292176  0.36194732785224915  1.0000
  F   F4        1.0  0.2496805489063263  0.5798823833465576  0.8901905417442322  1.0000
  F   F5        1.0  0.7498863935470581  0.02141658030450344  0.08801593631505966  1.0000
  F   F6        1.0  0.747238278388977  0.7916210293769838  0.5409960746765137  1.0000
