data_image0
_chemical_formula_structural       Rb2O3IRbORb2O2
_chemical_formula_sum              "Rb5 O6 I1"
_cell_length_a       5.945675148698577
_cell_length_b       7.018068556323338
_cell_length_c       7.9956254959106445
_cell_angle_alpha    108.89304218968377
_cell_angle_beta     89.3663453746734
_cell_angle_gamma    114.82105312837861

_space_group_name_H-M_alt    "P 1"
_space_group_IT_number       1

loop_
  _space_group_symop_operation_xyz
  'x, y, z'

loop_
  _atom_site_type_symbol
  _atom_site_label
  _atom_site_symmetry_multiplicity
  _atom_site_fract_x
  _atom_site_fract_y
  _atom_site_fract_z
  _atom_site_occupancy
  Rb  Rb1       1.0  0.07486239820718768  0.6455272436141968  0.3605818748474121  1.0000
  Rb  Rb2       1.0  0.3978108167648316  0.3045560121536255  0.03963924199342728  1.0000
  O   O1        1.0  0.625862717628479  0.7202970385551453  0.9528868794441222  1.0000
  O   O2        1.0  0.8568695783615113  0.20548787713050842  0.08625146746635437  1.0000
  O   O3        1.0  0.6415619254112244  0.7429458498954773  0.31499457359313965  1.0000
  I   I1        1.0  0.7154691219329834  0.9728702902793884  0.20007486641407013  1.0000
  Rb  Rb3       1.0  0.39310300350189215  0.28818708658218384  0.5390849709510803  1.0000
  O   O4        1.0  0.8726285696029664  0.23030969500541687  0.4471623599529266  1.0000
  Rb  Rb4       1.0  0.08863625675439835  0.6697720885276794  0.8586886525154113  1.0000
  Rb  Rb5       1.0  0.739919126033783  0.9790287613868713  0.702121376991272  1.0000
  O   O5        1.0  0.2422410845756531  0.9793179631233215  0.6991592645645142  1.0000
  O   O6        1.0  0.3870692551136017  0.9702684283256531  0.19944636523723608  1.0000
