# generated using pymatgen
data_RbDyBr4
_symmetry_space_group_name_H-M   'P 1'
_cell_length_a   7.19904422
_cell_length_b   8.53627389
_cell_length_c   12.08672715
_cell_angle_alpha   104.24260428
_cell_angle_beta   84.03448991
_cell_angle_gamma   87.69290232
_symmetry_Int_Tables_number   1
_chemical_formula_structural   RbDyBr4
_chemical_formula_sum   'Rb3 Dy3 Br12'
_cell_volume   714.36525153
_cell_formula_units_Z   3
loop_
 _symmetry_equiv_pos_site_id
 _symmetry_equiv_pos_as_xyz
  1  'x, y, z'
loop_
 _atom_site_type_symbol
 _atom_site_label
 _atom_site_symmetry_multiplicity
 _atom_site_fract_x
 _atom_site_fract_y
 _atom_site_fract_z
 _atom_site_occupancy
  Rb  Rb0  1  0.70857260  0.36199959  0.30837902  1
  Rb  Rb1  1  0.71744034  0.58057884  0.96594833  1
  Rb  Rb2  1  0.26549602  0.38971576  0.64823864  1
  Dy  Dy3  1  0.26132135  0.95412970  0.30277358  1
  Dy  Dy4  1  0.71427018  0.95840703  0.63295333  1
  Dy  Dy5  1  0.15626302  0.98021957  0.96535165  1
  Br  Br6  1  0.43541558  0.65081419  0.22662735  1
  Br  Br7  1  0.26327968  0.65267320  0.90433797  1
  Br  Br8  1  0.45347216  0.03466900  0.10374218  1
  Br  Br9  1  0.36623654  0.06368486  0.77955023  1
  Br  Br10  1  -0.01619224  0.28410752  0.04008036  1
  Br  Br11  1  0.15639830  0.28229063  0.37486226  1
  Br  Br12  1  0.55570635  0.05193738  0.44760222  1
  Br  Br13  1  0.86636265  0.87748932  0.82124315  1
  Br  Br14  1  0.59605469  0.65332783  0.56858898  1
  Br  Br15  1  0.05462009  0.86401470  0.48743608  1
  Br  Br16  1  0.79809521  0.27857139  0.70168649  1
  Br  Br17  1  0.96078499  0.90789243  0.16709012  1
