data_image0
_chemical_formula_structural       Cl5Rb2ClMn2
_chemical_formula_sum              "Cl6 Rb2 Mn2"
_cell_length_a       3.9957828040945675
_cell_length_b       8.276902978600473
_cell_length_c       8.92699909210205
_cell_angle_alpha    101.23025468391914
_cell_angle_beta     90.17680879152081
_cell_angle_gamma    90.12748115252126

_space_group_name_H-M_alt    "P 1"
_space_group_IT_number       1

loop_
  _space_group_symop_operation_xyz
  'x, y, z'

loop_
  _atom_site_type_symbol
  _atom_site_label
  _atom_site_symmetry_multiplicity
  _atom_site_fract_x
  _atom_site_fract_y
  _atom_site_fract_z
  _atom_site_occupancy
  Cl  Cl1       1.0  0.8830038905143739  0.9951059222221376  0.12432290613651276  1.0000
  Cl  Cl2       1.0  0.38534158468246466  0.2947041392326355  0.9247021675109863  1.0000
  Cl  Cl3       1.0  0.8826467990875245  0.594509482383728  0.17169877886772156  1.0000
  Cl  Cl4       1.0  0.383046180009842  0.691402018070221  0.8748041987419128  1.0000
  Cl  Cl5       1.0  0.38347223401069647  0.916138768196106  0.4370906949043274  1.0000
  Rb  Rb1       1.0  0.3840653002262116  0.3065676689147949  0.3172267973423004  1.0000
  Rb  Rb2       1.0  0.8831863999366761  0.9831578731536865  0.7316763997077942  1.0000
  Cl  Cl6       1.0  0.8809525966644288  0.3691644072532654  0.6137999892234802  1.0000
  Mn  Mn1       1.0  0.3833810687065125  0.815876841545105  0.17001315951347348  1.0000
  Mn  Mn2       1.0  0.8838537931442262  0.4724672734737396  0.8792816400527954  1.0000
