data_image0
_chemical_formula_structural       SnPtGeSn3PtGeRb2Pt2
_chemical_formula_sum              "Sn4 Pt4 Ge2 Rb2"
_cell_length_a       4.047490914009535
_cell_length_b       5.386757609165359
_cell_length_c       14.428483963012695
_cell_angle_alpha    85.76382992978121
_cell_angle_beta     90.15650263422447
_cell_angle_gamma    90.00258431731783

_space_group_name_H-M_alt    "P 1"
_space_group_IT_number       1

loop_
  _space_group_symop_operation_xyz
  'x, y, z'

loop_
  _atom_site_type_symbol
  _atom_site_label
  _atom_site_symmetry_multiplicity
  _atom_site_fract_x
  _atom_site_fract_y
  _atom_site_fract_z
  _atom_site_occupancy
  Sn  Sn1       1.0  0.557800829410553  0.3715994358062744  0.21111463010311127  1.0000
  Pt  Pt1       1.0  0.5603169798851013  0.7538479566574096  0.6991456151008606  1.0000
  Ge  Ge1       1.0  0.5606025457382202  0.9961007833480835  0.5501116514205933  1.0000
  Sn  Sn2       1.0  0.06110095605254173  0.4321456849575043  0.6709542870521545  1.0000
  Sn  Sn3       1.0  0.0598580501973629  0.9386075735092163  0.7856089472770691  1.0000
  Sn  Sn4       1.0  0.05897181108593941  0.35733601450920105  0.41938316822052  1.0000
  Pt  Pt2       1.0  0.05731811374425888  0.10743047297000885  0.2815284729003906  1.0000
  Ge  Ge2       1.0  0.557874321937561  0.8175507187843322  0.3204588294029236  1.0000
  Rb  Rb1       1.0  0.060139000415802  0.8659901022911072  0.09806977212429047  1.0000
  Rb  Rb2       1.0  0.5612504482269287  0.4010036885738373  0.9031531214714051  1.0000
  Pt  Pt3       1.0  0.05945318937301636  0.8432035446166991  0.45448347926139837  1.0000
  Pt  Pt4       1.0  0.5611278414726257  0.4816603362560273  0.5369713306427002  1.0000
