# generated using pymatgen
data_ReCl3
_symmetry_space_group_name_H-M   'P 1'
_cell_length_a   5.65735134
_cell_length_b   7.71545149
_cell_length_c   8.44112856
_cell_angle_alpha   56.55068288
_cell_angle_beta   60.44641329
_cell_angle_gamma   65.53849842
_symmetry_Int_Tables_number   1
_chemical_formula_structural   ReCl3
_chemical_formula_sum   'Re2 Cl6'
_cell_volume   262.24192308
_cell_formula_units_Z   2
loop_
 _symmetry_equiv_pos_site_id
 _symmetry_equiv_pos_as_xyz
  1  'x, y, z'
loop_
 _atom_site_type_symbol
 _atom_site_label
 _atom_site_symmetry_multiplicity
 _atom_site_fract_x
 _atom_site_fract_y
 _atom_site_fract_z
 _atom_site_occupancy
  Re  Re0  1  0.14603307  0.23183998  0.87180091  1
  Re  Re1  1  0.70948303  0.23213077  0.87175531  1
  Cl  Cl2  1  0.62292767  0.06977036  0.73113700  1
  Cl  Cl3  1  0.29501887  0.10251020  0.15121115  1
  Cl  Cl4  1  0.07693765  0.37884927  0.55660912  1
  Cl  Cl5  1  0.36522184  0.52340982  0.73297182  1
  Cl  Cl6  1  0.70775369  0.41547521  0.03040083  1
  Cl  Cl7  1  0.99776728  0.90293919  0.02912096  1
