data_image0
_chemical_formula_structural       O2ReORe2O6
_chemical_formula_sum              "O9 Re3"
_cell_length_a       5.342767471335331
_cell_length_b       5.212353698517379
_cell_length_c       7.954059600830078
_cell_angle_alpha    77.86877408361285
_cell_angle_beta     80.9288765627651
_cell_angle_gamma    80.7206097601918

_space_group_name_H-M_alt    "P 1"
_space_group_IT_number       1

loop_
  _space_group_symop_operation_xyz
  'x, y, z'

loop_
  _atom_site_type_symbol
  _atom_site_label
  _atom_site_symmetry_multiplicity
  _atom_site_fract_x
  _atom_site_fract_y
  _atom_site_fract_z
  _atom_site_occupancy
  O   O1        1.0  0.7844330072402953  0.20447824895381927  0.7634479403495789  1.0000
  O   O2        1.0  0.8470312356948851  0.7945578098297119  0.5728722214698792  1.0000
  Re  Re1       1.0  0.991734206676483  0.5099124908447266  0.45201587677001953  1.0000
  O   O3        1.0  0.28274670243263245  0.9982051849365235  0.8707951903343201  1.0000
  Re  Re2       1.0  0.06666431576013565  0.8967226147651672  0.7231422662734985  1.0000
  Re  Re3       1.0  0.5915387868881226  0.024506567046046257  0.9370545744895935  1.0000
  O   O4        1.0  0.5477813482284546  0.12915869057178497  0.1262214183807373  1.0000
  O   O5        1.0  0.7454509735107422  0.4238519668579102  0.37745794653892517  1.0000
  O   O6        1.0  0.2790868580341339  0.6195148229598999  0.6832252144813538  1.0000
  O   O7        1.0  0.1785119920969009  0.15928566455841064  0.5282869935035706  1.0000
  O   O8        1.0  0.18691930174827576  0.6587799787521362  0.2847057580947876  1.0000
  O   O9        1.0  0.8485525250434874  0.7431042790412903  0.924429714679718  1.0000
