data_image0
_chemical_formula_structural       RuClRuCl5
_chemical_formula_sum              "Ru2 Cl6"
_cell_length_a       5.909239781123311
_cell_length_b       6.93559089561046
_cell_length_c       7.0340423583984375
_cell_angle_alpha    107.52048848529442
_cell_angle_beta     76.53440044159369
_cell_angle_gamma    64.38901967688366

_space_group_name_H-M_alt    "P 1"
_space_group_IT_number       1

loop_
  _space_group_symop_operation_xyz
  'x, y, z'

loop_
  _atom_site_type_symbol
  _atom_site_label
  _atom_site_symmetry_multiplicity
  _atom_site_fract_x
  _atom_site_fract_y
  _atom_site_fract_z
  _atom_site_occupancy
  Ru  Ru1       1.0  0.7902448773384094  0.4550569653511047  0.6516563296318055  1.0000
  Cl  Cl1       1.0  0.18715208768844604  0.3131802976131439  0.36593335866928106  1.0000
  Ru  Ru2       1.0  0.2925500869750977  0.45519244670867914  0.6511452794075013  1.0000
  Cl  Cl2       1.0  0.5001261234283447  0.6223834753036499  0.49434384703636175  1.0000
  Cl  Cl3       1.0  0.08634957671165466  0.2830127775669098  0.8029798269271852  1.0000
  Cl  Cl4       1.0  0.839546799659729  0.7806694507598877  0.8070837259292604  1.0000
  Cl  Cl5       1.0  0.39261704683303833  0.6003792881965637  0.9370234012603761  1.0000
  Cl  Cl6       1.0  0.7440803050994873  0.12723593413829803  0.495419591665268  1.0000
