data_image0
_chemical_formula_structural       Pt2SbPt
_chemical_formula_sum              "Pt3 Sb1"
_cell_length_a       4.056811561174314
_cell_length_b       4.05511052381602
_cell_length_c       4.067544460296631
_cell_angle_alpha    90.01058929770574
_cell_angle_beta     90.1019908954772
_cell_angle_gamma    90.09257205379868

_space_group_name_H-M_alt    "P 1"
_space_group_IT_number       1

loop_
  _space_group_symop_operation_xyz
  'x, y, z'

loop_
  _atom_site_type_symbol
  _atom_site_label
  _atom_site_symmetry_multiplicity
  _atom_site_fract_x
  _atom_site_fract_y
  _atom_site_fract_z
  _atom_site_occupancy
  Pt  Pt1       1.0  0.8844686150550842  0.6449202299118042  0.8338192105293274  1.0000
  Pt  Pt2       1.0  0.38441333174705505  0.6454015970230103  0.33395737409591675  1.0000
  Sb  Sb1       1.0  0.8843062520027161  0.1456962674856186  0.33462977409362793  1.0000
  Pt  Pt3       1.0  0.38425055146217346  0.14521528780460358  0.8345239758491516  1.0000
