# generated using pymatgen
data_Sc2Cd2BAuO4
_symmetry_space_group_name_H-M   'P 1'
_cell_length_a   3.41588550
_cell_length_b   4.87526913
_cell_length_c   10.78671317
_cell_angle_alpha   109.07041604
_cell_angle_beta   109.55040719
_cell_angle_gamma   91.65396838
_symmetry_Int_Tables_number   1
_chemical_formula_structural   Sc2Cd2BAuO4
_chemical_formula_sum   'Sc2 Cd2 B1 Au1 O4'
_cell_volume   158.05041250
_cell_formula_units_Z   1
loop_
 _symmetry_equiv_pos_site_id
 _symmetry_equiv_pos_as_xyz
  1  'x, y, z'
loop_
 _atom_site_type_symbol
 _atom_site_label
 _atom_site_symmetry_multiplicity
 _atom_site_fract_x
 _atom_site_fract_y
 _atom_site_fract_z
 _atom_site_occupancy
  Sc  Sc0  1  0.03943481  -0.13888603  0.52014485  1
  Sc  Sc1  1  0.84201898  0.79838588  0.80793203  1
  Cd  Cd2  1  0.25924158  0.90552335  0.26969871  1
  Cd  Cd3  1  0.64848968  0.19920428  0.15155147  1
  B  B4  1  0.30297754  0.29755635  0.85474944  1
  Au  Au5  1  0.55410116  0.38247127  0.53433504  1
  O  O6  1  0.38248302  0.57532504  0.85274002  1
  O  O7  1  0.15000080  0.23785231  -0.05219480  1
  O  O8  1  0.80080912  0.64318595  0.31771668  1
  O  O9  1  0.32121953  0.03745550  0.74987081  1
