data_image0
_chemical_formula_structural       GeIr2Sc2Ge2Ir2
_chemical_formula_sum              "Ge3 Ir4 Sc2"
_cell_length_a       4.284036235733386
_cell_length_b       4.2816919995975065
_cell_length_c       10.182108879089355
_cell_angle_alpha    89.88546707028024
_cell_angle_beta     90.0108078635383
_cell_angle_gamma    120.07938653291647

_space_group_name_H-M_alt    "P 1"
_space_group_IT_number       1

loop_
  _space_group_symop_operation_xyz
  'x, y, z'

loop_
  _atom_site_type_symbol
  _atom_site_label
  _atom_site_symmetry_multiplicity
  _atom_site_fract_x
  _atom_site_fract_y
  _atom_site_fract_z
  _atom_site_occupancy
  Ge  Ge1       1.0  0.8136337995529175  0.254638671875  0.8000213503837585  1.0000
  Ir  Ir1       1.0  0.8131804466247559  0.2537955939769745  0.5587135553359985  1.0000
  Ir  Ir2       1.0  0.8070242404937744  0.2532990574836731  0.05456729978322983  1.0000
  Sc  Sc1       1.0  0.1412257999181747  0.9202635884284972  0.194136381149292  1.0000
  Sc  Sc2       1.0  0.14820109307765958  0.9204777479171753  0.5646759271621704  1.0000
  Ge  Ge2       1.0  0.47500303387641907  0.5862988829612731  0.9881840348243713  1.0000
  Ge  Ge3       1.0  0.808983325958252  0.2532089650630951  0.3128792941570282  1.0000
  Ir  Ir3       1.0  0.4782705008983612  0.5863082408905029  0.4070573151111603  1.0000
  Ir  Ir4       1.0  0.4788371920585631  0.5870741009712218  0.7156566977500916  1.0000
