# generated using pymatgen
data_Sc3Tl
_symmetry_space_group_name_H-M   'P 1'
_cell_length_a   4.41076836
_cell_length_b   5.60750257
_cell_length_c   8.73631251
_cell_angle_alpha   91.76174879
_cell_angle_beta   104.58019085
_cell_angle_gamma   113.19911421
_symmetry_Int_Tables_number   1
_chemical_formula_structural   Sc3Tl
_chemical_formula_sum   'Sc6 Tl2'
_cell_volume   190.15021436
_cell_formula_units_Z   2
loop_
 _symmetry_equiv_pos_site_id
 _symmetry_equiv_pos_as_xyz
  1  'x, y, z'
loop_
 _atom_site_type_symbol
 _atom_site_label
 _atom_site_symmetry_multiplicity
 _atom_site_fract_x
 _atom_site_fract_y
 _atom_site_fract_z
 _atom_site_occupancy
  Sc  Sc0  1  0.88614232  0.90436315  0.80810679  1
  Sc  Sc1  1  0.74515164  0.00191854  0.42742838  1
  Sc  Sc2  1  0.12631111  0.63813253  0.55431149  1
  Sc  Sc3  1  0.50481374  0.26772745  0.68146645  1
  Sc  Sc4  1  0.00192850  0.76432150  0.18065705  1
  Sc  Sc5  1  0.62934833  0.14183445  0.05503108  1
  Tl  Tl6  1  0.37457755  0.37780374  0.31084899  1
  Tl  Tl7  1  0.25682697  0.52862372  0.92473213  1
