# generated using pymatgen
data_Sc5N3Cl10
_symmetry_space_group_name_H-M   'P 1'
_cell_length_a   6.44223070
_cell_length_b   8.13677941
_cell_length_c   9.03979958
_cell_angle_alpha   108.31559808
_cell_angle_beta   93.13342545
_cell_angle_gamma   102.09557783
_symmetry_Int_Tables_number   1
_chemical_formula_structural   Sc5N3Cl10
_chemical_formula_sum   'Sc5 N3 Cl10'
_cell_volume   436.14222214
_cell_formula_units_Z   1
loop_
 _symmetry_equiv_pos_site_id
 _symmetry_equiv_pos_as_xyz
  1  'x, y, z'
loop_
 _atom_site_type_symbol
 _atom_site_label
 _atom_site_symmetry_multiplicity
 _atom_site_fract_x
 _atom_site_fract_y
 _atom_site_fract_z
 _atom_site_occupancy
  Sc  Sc0  1  0.66199285  0.22714700  0.74509551  1
  Sc  Sc1  1  0.86720912  0.74140744  0.89675316  1
  Sc  Sc2  1  0.74208301  0.00444873  0.39053268  1
  Sc  Sc3  1  0.58624250  0.51862489  0.16822819  1
  Sc  Sc4  1  0.35937779  0.21933796  0.42399024  1
  N  N5  1  0.52973759  0.09737974  0.52590352  1
  N  N6  1  0.57221901  0.78384780  0.18500895  1
  N  N7  1  0.62769575  0.72106694  0.05648641  1
  Cl  Cl8  1  0.61870764  0.50458722  0.67323098  1
  Cl  Cl9  1  0.07604264  -0.00729732  0.20916416  1
  Cl  Cl10  1  0.20536239  0.77024245  0.82025987  1
  Cl  Cl11  1  0.28887039  0.47266952  0.32917021  1
  Cl  Cl12  1  0.92064840  0.48097331  -0.00256663  1
  Cl  Cl13  1  0.38215942  0.27017473  0.91976493  1
  Cl  Cl14  1  0.03839793  0.24186505  0.59179319  1
  Cl  Cl15  1  0.84201855  0.72632837  0.41701002  1
  Cl  Cl16  1  0.77751065  -0.00354791  0.83642488  1
  Cl  Cl17  1  0.65739796  0.22788671  0.25104825  1
