data_image0
_chemical_formula_structural       ScPScPSc2P2ScP2ScAuP2Sc
_chemical_formula_sum              "Sc7 P8 Au1"
_cell_length_a       3.789239800095862
_cell_length_b       3.792295046483151
_cell_length_c       25.705284118652344
_cell_angle_alpha    85.53066843253167
_cell_angle_beta     90.14747995889273
_cell_angle_gamma    120.0636919547162

_space_group_name_H-M_alt    "P 1"
_space_group_IT_number       1

loop_
  _space_group_symop_operation_xyz
  'x, y, z'

loop_
  _atom_site_type_symbol
  _atom_site_label
  _atom_site_symmetry_multiplicity
  _atom_site_fract_x
  _atom_site_fract_y
  _atom_site_fract_z
  _atom_site_occupancy
  Sc  Sc1       1.0  0.5233046412467957  0.437622606754303  0.37659612298011785  1.0000
  P   P1        1.0  0.7468290328979491  0.8841249942779541  0.7050555348396302  1.0000
  Sc  Sc2       1.0  0.017501622438430783  0.4240953028202057  0.8895750641822816  1.0000
  P   P2        1.0  0.20179378986358645  0.8013679981231691  0.33512252569198614  1.0000
  Sc  Sc3       1.0  0.3096336424350738  0.011182507500052454  0.012955211102962496  1.0000
  Sc  Sc4       1.0  0.05923668667674064  0.5089260935783386  0.7643482089042665  1.0000
  P   P3        1.0  0.5716510415077208  0.5449180603027344  0.21119859814643863  1.0000
  P   P4        1.0  0.37082687020301813  0.13374774158000946  0.8278005123138429  1.0000
  Sc  Sc5       1.0  0.8062902688980101  0.0034366834443062544  0.5297284126281738  1.0000
  P   P5        1.0  0.4911756515502929  0.3749365508556366  0.4742103219032288  1.0000
  P   P6        1.0  0.6654582619667052  0.7178559303283693  0.948923945426941  1.0000
  Sc  Sc6       1.0  0.43333485722541804  0.25682368874549866  0.6460754871368408  1.0000
  Au  Au1       1.0  0.925870656967163  0.2493169754743576  0.14913693070411682  1.0000
  P   P7        1.0  0.1188500747084618  0.6281450986862184  0.5913225412368774  1.0000
  P   P8        1.0  0.6226176023483275  0.6407013535499573  0.08194833248853683  1.0000
  Sc  Sc7       1.0  0.8882592320442199  0.17456026375293732  0.27312833070755005  1.0000
