# generated using pymatgen
data_ScInCu2
_symmetry_space_group_name_H-M   'P 1'
_cell_length_a   4.52711257
_cell_length_b   4.52736168
_cell_length_c   4.52868470
_cell_angle_alpha   60.07439373
_cell_angle_beta   60.04805910
_cell_angle_gamma   60.05935596
_symmetry_Int_Tables_number   1
_chemical_formula_structural   ScInCu2
_chemical_formula_sum   'Sc1 In1 Cu2'
_cell_volume   65.72333872
_cell_formula_units_Z   1
loop_
 _symmetry_equiv_pos_site_id
 _symmetry_equiv_pos_as_xyz
  1  'x, y, z'
loop_
 _atom_site_type_symbol
 _atom_site_label
 _atom_site_symmetry_multiplicity
 _atom_site_fract_x
 _atom_site_fract_y
 _atom_site_fract_z
 _atom_site_occupancy
  Sc  Sc0  1  0.02697003  0.69918503  0.45438114  1
  In  In1  1  0.52690236  0.19908249  0.95435499  1
  Cu  Cu2  1  0.27704742  0.94917796  0.70454650  1
  Cu  Cu3  1  0.77685758  0.44894170  0.20446645  1
