data_image0
_chemical_formula_structural       ScOSc2O2ScO2Sc
_chemical_formula_sum              "Sc5 O5"
_cell_length_a       4.0750755910366605
_cell_length_b       4.076582357722105
_cell_length_c       7.394410610198975
_cell_angle_alpha    90.20335090963339
_cell_angle_beta     89.84837230517535
_cell_angle_gamma    90.5206268895712

_space_group_name_H-M_alt    "P 1"
_space_group_IT_number       1

loop_
  _space_group_symop_operation_xyz
  'x, y, z'

loop_
  _atom_site_type_symbol
  _atom_site_label
  _atom_site_symmetry_multiplicity
  _atom_site_fract_x
  _atom_site_fract_y
  _atom_site_fract_z
  _atom_site_occupancy
  Sc  Sc1       1.0  0.16636021435260773  0.9697793126106262  0.9082251787185668  1.0000
  O   O1        1.0  0.16764596104621887  0.46708568930625916  0.7212829589843749  1.0000
  Sc  Sc2       1.0  0.6671859622001648  0.9710955023765565  0.22462731599807736  1.0000
  Sc  Sc3       1.0  0.16698402166366577  0.4701193571090698  0.4089654684066772  1.0000
  O   O2        1.0  0.16779330372810364  0.9696233272552491  0.4098531603813171  1.0000
  O   O3        1.0  0.6668561697006226  0.4690754413604737  0.40920946002006525  1.0000
  Sc  Sc4       1.0  0.6669235825538635  0.9694501161575317  0.5919222831726074  1.0000
  O   O4        1.0  0.6659622192382812  0.9690839052200317  0.9074624776840209  1.0000
  O   O5        1.0  0.16547083854675293  0.4700243175029755  0.09658706188201903  1.0000
  Sc  Sc5       1.0  0.6665757298469543  0.4691356122493744  0.9089963436126708  1.0000
