# generated using pymatgen
data_ScPd5
_symmetry_space_group_name_H-M   'P 1'
_cell_length_a   4.56068453
_cell_length_b   4.91780580
_cell_length_c   4.91689952
_cell_angle_alpha   120.02057128
_cell_angle_beta   89.99621096
_cell_angle_gamma   90.01033207
_symmetry_Int_Tables_number   1
_chemical_formula_structural   ScPd5
_chemical_formula_sum   'Sc1 Pd5'
_cell_volume   95.48459341
_cell_formula_units_Z   1
loop_
 _symmetry_equiv_pos_site_id
 _symmetry_equiv_pos_as_xyz
  1  'x, y, z'
loop_
 _atom_site_type_symbol
 _atom_site_label
 _atom_site_symmetry_multiplicity
 _atom_site_fract_x
 _atom_site_fract_y
 _atom_site_fract_z
 _atom_site_occupancy
  Sc  Sc0  1  0.49997828  0.07859114  0.67540252  1
  Pd  Pd1  1  0.49980504  0.74520222  0.00860080  1
  Pd  Pd2  1  0.99991088  0.41939945  0.01605979  1
  Pd  Pd3  1  0.99992073  0.07899152  0.33541881  1
  Pd  Pd4  1  0.00001616  0.73870244  0.67561315  1
  Pd  Pd5  1  0.49984345  0.41173791  0.34185933  1
