# generated using pymatgen
data_ScRu2Br7
_symmetry_space_group_name_H-M   'P 1'
_cell_length_a   6.23569837
_cell_length_b   8.71075339
_cell_length_c   6.84371963
_cell_angle_alpha   95.97426510
_cell_angle_beta   84.93113191
_cell_angle_gamma   111.98305793
_symmetry_Int_Tables_number   1
_chemical_formula_structural   ScRu2Br7
_chemical_formula_sum   'Sc1 Ru2 Br7'
_cell_volume   342.34330980
_cell_formula_units_Z   1
loop_
 _symmetry_equiv_pos_site_id
 _symmetry_equiv_pos_as_xyz
  1  'x, y, z'
loop_
 _atom_site_type_symbol
 _atom_site_label
 _atom_site_symmetry_multiplicity
 _atom_site_fract_x
 _atom_site_fract_y
 _atom_site_fract_z
 _atom_site_occupancy
  Sc  Sc0  1  0.57752736  0.33324973  -0.04501408  1
  Ru  Ru1  1  0.77312360  0.24415682  0.57765943  1
  Ru  Ru2  1  0.08423776  0.33241298  0.95920960  1
  Br  Br3  1  0.43827796  0.57959230  0.06768104  1
  Br  Br4  1  0.31799430  0.28013575  0.64735908  1
  Br  Br5  1  0.59194372  -0.01647732  0.38653545  1
  Br  Br6  1  0.72789102  0.08104549  0.86757330  1
  Br  Br7  1  0.20238716  0.13957499  0.13681694  1
  Br  Br8  1  0.97093238  0.52951652  0.77219881  1
  Br  Br9  1  0.86433124  0.40874612  0.26868674  1
