data_image0
_chemical_formula_structural       I3SeI4SeI3
_chemical_formula_sum              "I10 Se2"
_cell_length_a       7.489427944342723
_cell_length_b       8.211019303006877
_cell_length_c       10.765616416931152
_cell_angle_alpha    89.86254494777913
_cell_angle_beta     92.83181258240919
_cell_angle_gamma    90.17401524158178

_space_group_name_H-M_alt    "P 1"
_space_group_IT_number       1

loop_
  _space_group_symop_operation_xyz
  'x, y, z'

loop_
  _atom_site_type_symbol
  _atom_site_label
  _atom_site_symmetry_multiplicity
  _atom_site_fract_x
  _atom_site_fract_y
  _atom_site_fract_z
  _atom_site_occupancy
  I   I1        1.0  0.27947109937667847  0.8710150718688965  0.8931307792663574  1.0000
  I   I2        1.0  0.9089329242706299  0.36704924702644354  0.4611213803291321  1.0000
  I   I3        1.0  0.9421427249908447  0.8667386174201965  0.7247465252876282  1.0000
  Se  Se1       1.0  0.6169415712356567  0.36630988121032715  0.8121383190155028  1.0000
  I   I4        1.0  0.9445523619651794  0.8700729012489319  0.22601735591888428  1.0000
  I   I5        1.0  0.9265320301055908  0.36829829216003424  0.9690977334976195  1.0000
  I   I6        1.0  0.27825501561164856  0.8680440783500672  0.39297929406166077  1.0000
  I   I7        1.0  0.30766305327415466  0.3725603222846985  0.15482011437416077  1.0000
  Se  Se2       1.0  0.615382730960846  0.36821088194847107  0.310939222574234  1.0000
  I   I8        1.0  0.6107133030891418  0.8700897097587585  0.05898373946547508  1.0000
  I   I9        1.0  0.2977336347103119  0.3651013672351837  0.6502056121826172  1.0000
  I   I10       1.0  0.6114105582237244  0.8699010610580444  0.559611141681671  1.0000
