data_image0
_chemical_formula_structural       RhSi3Pt2RhPt
_chemical_formula_sum              "Rh2 Si3 Pt3"
_cell_length_a       3.51812813712238
_cell_length_b       3.925514782856295
_cell_length_c       8.663182258605957
_cell_angle_alpha    103.02621872170918
_cell_angle_beta     101.57967352970232
_cell_angle_gamma    89.99676499038334

_space_group_name_H-M_alt    "P 1"
_space_group_IT_number       1

loop_
  _space_group_symop_operation_xyz
  'x, y, z'

loop_
  _atom_site_type_symbol
  _atom_site_label
  _atom_site_symmetry_multiplicity
  _atom_site_fract_x
  _atom_site_fract_y
  _atom_site_fract_z
  _atom_site_occupancy
  Rh  Rh1       1.0  0.47781127691268915  0.4963271617889404  0.09436925500631332  1.0000
  Si  Si1       1.0  0.07770684361457825  0.5981777310371399  0.3000623285770416  1.0000
  Si  Si2       1.0  0.3605186641216278  0.8783506155014037  0.861011803150177  1.0000
  Si  Si3       1.0  0.21885541081428525  0.23835606873035428  0.5814560055732727  1.0000
  Pt  Pt1       1.0  0.8406322002410889  0.35867017507553095  0.8194541335105896  1.0000
  Pt  Pt2       1.0  0.7145411372184753  0.7405996918678283  0.5835615992546082  1.0000
  Rh  Rh2       1.0  0.9650507569313048  0.9818172454833983  0.06877663731575012  1.0000
  Pt  Pt3       1.0  0.6034918427467346  0.11968365311622618  0.34601303935050964  1.0000
