data_image0
_chemical_formula_structural       Si2WRuSiRu
_chemical_formula_sum              "Si3 W1 Ru2"
_cell_length_a       3.1145409535563684
_cell_length_b       3.1167457096443347
_cell_length_c       8.458047866821289
_cell_angle_alpha    90.1874980375557
_cell_angle_beta     89.76425168523127
_cell_angle_gamma    89.60226693219631

_space_group_name_H-M_alt    "P 1"
_space_group_IT_number       1

loop_
  _space_group_symop_operation_xyz
  'x, y, z'

loop_
  _atom_site_type_symbol
  _atom_site_label
  _atom_site_symmetry_multiplicity
  _atom_site_fract_x
  _atom_site_fract_y
  _atom_site_fract_z
  _atom_site_occupancy
  Si  Si1       1.0  0.5682454705238342  0.5789917707443237  0.004673668183386326  1.0000
  Si  Si2       1.0  0.06998159736394882  0.08053916692733766  0.5059935450553894  1.0000
  W   W1        1.0  0.5679967999458313  0.579851508140564  0.6708012223243713  1.0000
  Ru  Ru1       1.0  0.06835328042507172  0.07847775518894196  0.8840599656105042  1.0000
  Si  Si3       1.0  0.06793992966413498  0.07940640300512314  0.18456000089645386  1.0000
  Ru  Ru2       1.0  0.5661629438400269  0.5800870060920715  0.32826322317123413  1.0000
