data_image0
_chemical_formula_structural       ClSiClICl
_chemical_formula_sum              "Cl3 Si1 I1"
_cell_length_a       5.773641412015891
_cell_length_b       5.71909692689894
_cell_length_c       5.706046104431152
_cell_angle_alpha    88.61172548897635
_cell_angle_beta     90.74865953165182
_cell_angle_gamma    91.6406685952617

_space_group_name_H-M_alt    "P 1"
_space_group_IT_number       1

loop_
  _space_group_symop_operation_xyz
  'x, y, z'

loop_
  _atom_site_type_symbol
  _atom_site_label
  _atom_site_symmetry_multiplicity
  _atom_site_fract_x
  _atom_site_fract_y
  _atom_site_fract_z
  _atom_site_occupancy
  Cl  Cl1       1.0  0.9949870705604553  0.05771499872207642  0.28901028633117676  1.0000
  Si  Si1       1.0  0.7734817862510681  0.8387062549591066  0.07214582711458206  1.0000
  Cl  Cl2       1.0  0.5579412579536438  0.05543294921517373  0.8498440384864808  1.0000
  I   I1        1.0  0.006805103272199631  0.6073765158653259  0.8351278305053712  1.0000
  Cl  Cl3       1.0  0.5553135871887207  0.6177142262458801  0.29013699293136597  1.0000
