# generated using pymatgen
data_Sm3S4
_symmetry_space_group_name_H-M   'P 1'
_cell_length_a   3.92119158
_cell_length_b   7.23378493
_cell_length_c   12.17471649
_cell_angle_alpha   89.04295165
_cell_angle_beta   89.99968574
_cell_angle_gamma   90.00574174
_symmetry_Int_Tables_number   1
_chemical_formula_structural   Sm3S4
_chemical_formula_sum   'Sm6 S8'
_cell_volume   345.28834445
_cell_formula_units_Z   2
loop_
 _symmetry_equiv_pos_site_id
 _symmetry_equiv_pos_as_xyz
  1  'x, y, z'
loop_
 _atom_site_type_symbol
 _atom_site_label
 _atom_site_symmetry_multiplicity
 _atom_site_fract_x
 _atom_site_fract_y
 _atom_site_fract_z
 _atom_site_occupancy
  Sm  Sm0  1  0.13799577  0.27166225  0.80952371  1
  Sm  Sm1  1  0.63769962  0.17019296  0.50317478  1
  Sm  Sm2  1  0.63778881  0.67767866  0.64693070  1
  Sm  Sm3  1  0.63766638  0.82112974  0.96566580  1
  Sm  Sm4  1  0.13721446  0.28990055  0.20830654  1
  Sm  Sm5  1  0.13712502  0.76436051  0.30844486  1
  S  S6  1  0.63781740  0.04117227  0.74576900  1
  S  S7  1  0.13755823  0.62998446  0.09437586  1
  S  S8  1  0.13770307  0.88415627  0.52426086  1
  S  S9  1  0.63722862  0.47943887  0.33773039  1
  S  S10  1  0.13784852  0.65564418  0.82052725  1
  S  S11  1  0.13771635  0.09748605  0.01004019  1
  S  S12  1  0.63715684  0.03111013  0.27508193  1
  S  S13  1  0.13761881  0.40587458  0.58846200  1
