# generated using pymatgen
data_Sm4MgAl6Ga
_symmetry_space_group_name_H-M   'P 1'
_cell_length_a   4.53528502
_cell_length_b   6.77770128
_cell_length_c   10.45790699
_cell_angle_alpha   121.73706917
_cell_angle_beta   89.99262406
_cell_angle_gamma   89.99042971
_symmetry_Int_Tables_number   1
_chemical_formula_structural   Sm4MgAl6Ga
_chemical_formula_sum   'Sm4 Mg1 Al6 Ga1'
_cell_volume   273.39543226
_cell_formula_units_Z   1
loop_
 _symmetry_equiv_pos_site_id
 _symmetry_equiv_pos_as_xyz
  1  'x, y, z'
loop_
 _atom_site_type_symbol
 _atom_site_label
 _atom_site_symmetry_multiplicity
 _atom_site_fract_x
 _atom_site_fract_y
 _atom_site_fract_z
 _atom_site_occupancy
  Sm  Sm0  1  0.99086733  0.43408469  0.55144230  1
  Sm  Sm1  1  0.99077949  0.68705753  0.31149505  1
  Sm  Sm2  1  0.49086260  0.02034333  0.89162823  1
  Sm  Sm3  1  0.49087751  0.75971299  0.11709541  1
  Mg  Mg4  1  0.49077821  0.32329452  0.28256604  1
  Al  Al5  1  0.99066975  0.02908491  0.65386959  1
  Al  Al6  1  0.49073860  0.40863993  0.77750990  1
  Al  Al7  1  0.49096722  0.74445181  0.54216057  1
  Al  Al8  1  0.99093420  0.37222295  0.94919408  1
  Al  Al9  1  0.49066456  0.07881089  0.48071816  1
  Al  Al10  1  0.99070856  0.10534652  0.14521591  1
  Ga  Ga11  1  0.99086794  0.71376119  0.89212178  1
