# generated using pymatgen
data_Sm4P5Se
_symmetry_space_group_name_H-M   'P 1'
_cell_length_a   3.95615636
_cell_length_b   3.84549837
_cell_length_c   15.34695837
_cell_angle_alpha   89.00665413
_cell_angle_beta   93.84730820
_cell_angle_gamma   90.21663456
_symmetry_Int_Tables_number   1
_chemical_formula_structural   Sm4P5Se
_chemical_formula_sum   'Sm4 P5 Se1'
_cell_volume   232.91732738
_cell_formula_units_Z   1
loop_
 _symmetry_equiv_pos_site_id
 _symmetry_equiv_pos_as_xyz
  1  'x, y, z'
loop_
 _atom_site_type_symbol
 _atom_site_label
 _atom_site_symmetry_multiplicity
 _atom_site_fract_x
 _atom_site_fract_y
 _atom_site_fract_z
 _atom_site_occupancy
  Sm  Sm0  1  0.35814662  0.88640581  0.76120731  1
  Sm  Sm1  1  0.44087390  0.41258524  0.27594658  1
  Sm  Sm2  1  0.87720351  0.86581914  0.98157364  1
  Sm  Sm3  1  0.97003337  0.89525357  0.54094263  1
  P  P4  1  0.35552639  0.37285287  0.90487683  1
  P  P5  1  0.49376568  0.39274546  0.57570709  1
  P  P6  1  0.41906262  0.95270042  0.13197336  1
  P  P7  1  0.90164223  0.32703269  0.13009290  1
  P  P8  1  0.83286929  0.38873068  0.70016742  1
  Se  Se9  1  0.96060003  0.90560021  0.35180535  1
