# generated using pymatgen
data_SmGa3
_symmetry_space_group_name_H-M   'P 1'
_cell_length_a   4.57131889
_cell_length_b   6.40723189
_cell_length_c   6.40790705
_cell_angle_alpha   120.01269750
_cell_angle_beta   89.98579012
_cell_angle_gamma   89.99872977
_symmetry_Int_Tables_number   1
_chemical_formula_structural   SmGa3
_chemical_formula_sum   'Sm2 Ga6'
_cell_volume   162.51864561
_cell_formula_units_Z   2
loop_
 _symmetry_equiv_pos_site_id
 _symmetry_equiv_pos_as_xyz
  1  'x, y, z'
loop_
 _atom_site_type_symbol
 _atom_site_label
 _atom_site_symmetry_multiplicity
 _atom_site_fract_x
 _atom_site_fract_y
 _atom_site_fract_z
 _atom_site_occupancy
  Sm  Sm0  1  0.44539184  0.63546250  0.63571394  1
  Sm  Sm1  1  0.94540869  0.96944893  0.30234460  1
  Ga  Ga2  1  0.44541734  0.15753657  0.67972415  1
  Ga  Ga3  1  0.44529444  0.59177535  0.11384593  1
  Ga  Ga4  1  0.94534087  0.44714736  0.82427146  1
  Ga  Ga5  1  0.94531328  0.44741722  0.25837684  1
  Ga  Ga6  1  0.94543753  0.01314791  0.82426806  1
  Ga  Ga7  1  0.44539104  0.15763752  0.11361909  1
