# generated using pymatgen
data_SmMgAg2
_symmetry_space_group_name_H-M   'P 1'
_cell_length_a   5.01639368
_cell_length_b   5.02012599
_cell_length_c   5.01937819
_cell_angle_alpha   60.04949511
_cell_angle_beta   60.03986339
_cell_angle_gamma   60.00555515
_symmetry_Int_Tables_number   1
_chemical_formula_structural   SmMgAg2
_chemical_formula_sum   'Sm1 Mg1 Ag2'
_cell_volume   89.44423600
_cell_formula_units_Z   1
loop_
 _symmetry_equiv_pos_site_id
 _symmetry_equiv_pos_as_xyz
  1  'x, y, z'
loop_
 _atom_site_type_symbol
 _atom_site_label
 _atom_site_symmetry_multiplicity
 _atom_site_fract_x
 _atom_site_fract_y
 _atom_site_fract_z
 _atom_site_occupancy
  Sm  Sm0  1  0.28700939  0.68300861  0.74143380  1
  Mg  Mg1  1  0.78718454  0.18343972  0.24075913  1
  Ag  Ag2  1  0.03603266  0.43286529  0.49198812  1
  Ag  Ag3  1  0.53693587  0.93260777  0.99156964  1
