# generated using pymatgen
data_SmScAlB12
_symmetry_space_group_name_H-M   'P 1'
_cell_length_a   4.09180366
_cell_length_b   4.09244612
_cell_length_c   8.86122398
_cell_angle_alpha   92.50965330
_cell_angle_beta   87.81026719
_cell_angle_gamma   90.12460346
_symmetry_Int_Tables_number   1
_chemical_formula_structural   SmScAlB12
_chemical_formula_sum   'Sm1 Sc1 Al1 B12'
_cell_volume   148.13491074
_cell_formula_units_Z   1
loop_
 _symmetry_equiv_pos_site_id
 _symmetry_equiv_pos_as_xyz
  1  'x, y, z'
loop_
 _atom_site_type_symbol
 _atom_site_label
 _atom_site_symmetry_multiplicity
 _atom_site_fract_x
 _atom_site_fract_y
 _atom_site_fract_z
 _atom_site_occupancy
  Sm  Sm0  1  0.03107354  0.29556581  0.54523079  1
  Sc  Sc1  1  0.03946891  0.23462750  0.15148860  1
  Al  Al2  1  0.49578215  0.20875386  0.82752179  1
  B  B3  1  0.55940104  0.45234643  0.31924454  1
  B  B4  1  -0.00897906  0.41538062  0.88938230  1
  B  B5  1  0.54586158  0.76605031  0.46399605  1
  B  B6  1  0.51163285  0.79757375  0.65310872  1
  B  B7  1  0.78763265  0.71508767  0.79290015  1
  B  B8  1  0.56020081  0.05195367  0.31807049  1
  B  B9  1  0.26180479  0.75237783  0.31803852  1
  B  B10  1  0.58971429  0.73684390  0.17164516  1
  B  B11  1  0.86129594  0.75356031  0.32542219  1
  B  B12  1  0.00093524  0.00763692  0.89967340  1
  B  B13  1  0.21178790  0.72020113  0.78279231  1
  B  B14  1  0.79260511  0.72120417  0.00146154  1
