data_image0
_chemical_formula_structural       SiPdSiPdSiSmPdSi2PdSiPd
_chemical_formula_sum              "Si6 Pd5 Sm1"
_cell_length_a       3.888302094115447
_cell_length_b       3.8794504098108407
_cell_length_c       12.216848373413086
_cell_angle_alpha    89.94929517715897
_cell_angle_beta     90.02032914771569
_cell_angle_gamma    90.12045288259479

_space_group_name_H-M_alt    "P 1"
_space_group_IT_number       1

loop_
  _space_group_symop_operation_xyz
  'x, y, z'

loop_
  _atom_site_type_symbol
  _atom_site_label
  _atom_site_symmetry_multiplicity
  _atom_site_fract_x
  _atom_site_fract_y
  _atom_site_fract_z
  _atom_site_occupancy
  Si  Si1       1.0  0.9626720547676085  0.4582337737083435  0.499449223279953  1.0000
  Pd  Pd1       1.0  0.9614607095718383  0.9597256779670716  0.6288049221038818  1.0000
  Si  Si2       1.0  0.46369373798370356  0.4573649466037751  0.25326597690582275  1.0000
  Pd  Pd2       1.0  0.4609969556331634  0.4601546525955201  0.6353316903114319  1.0000
  Si  Si3       1.0  0.9625656604766845  0.45765686035156256  0.11054174602031708  1.0000
  Sm  Sm1       1.0  0.9628801941871642  0.958753228187561  0.3072945475578308  1.0000
  Pd  Pd3       1.0  0.9595021009445189  0.4595021307468415  0.7996823787689209  1.0000
  Si  Si4       1.0  0.4625192284584045  0.9572992324829103  0.11107886582612991  1.0000
  Si  Si5       1.0  0.45968216657638544  0.9598042964935304  0.8038420081138611  1.0000
  Pd  Pd4       1.0  0.9617177248001098  0.9583641290664674  0.9742789268493652  1.0000
  Si  Si6       1.0  0.46196615695953364  0.9601134061813356  0.4976873993873596  1.0000
  Pd  Pd5       1.0  0.4608736038208007  0.4586930572986603  0.9637658596038818  1.0000
