data_image0
_chemical_formula_structural       Sn2Cl8
_chemical_formula_sum              "Sn2 Cl8"
_cell_length_a       6.966886091453845
_cell_length_b       8.649158661103632
_cell_length_c       7.437937259674072
_cell_angle_alpha    89.7844280680947
_cell_angle_beta     89.76384870475046
_cell_angle_gamma    89.54590417783257

_space_group_name_H-M_alt    "P 1"
_space_group_IT_number       1

loop_
  _space_group_symop_operation_xyz
  'x, y, z'

loop_
  _atom_site_type_symbol
  _atom_site_label
  _atom_site_symmetry_multiplicity
  _atom_site_fract_x
  _atom_site_fract_y
  _atom_site_fract_z
  _atom_site_occupancy
  Sn  Sn1       1.0  0.9122465848922728  0.6124528646469116  0.6170023679733276  1.0000
  Sn  Sn2       1.0  0.4108257889747619  0.11327475309371948  0.9748942255973817  1.0000
  Cl  Cl1       1.0  0.7504107952117919  0.11449643224477768  0.9833262562751771  1.0000
  Cl  Cl2       1.0  0.8061556816101073  0.613358199596405  0.9118571877479554  1.0000
  Cl  Cl3       1.0  0.30387285351753235  0.1154349148273468  0.6811034083366395  1.0000
  Cl  Cl4       1.0  0.8026857376098632  0.8345228433609009  0.47424486279487615  1.0000
  Cl  Cl5       1.0  0.8035122752189635  0.39269503951072693  0.47804915904998785  1.0000
  Cl  Cl6       1.0  0.24936066567897794  0.6151074767112732  0.6091678142547607  1.0000
  Cl  Cl7       1.0  0.3024511933326721  0.8923006057739258  0.114054873585701  1.0000
  Cl  Cl8       1.0  0.30262523889541626  0.33589211106300354  0.1191675439476967  1.0000
