data_image0
_chemical_formula_structural       O2SO3SO3
_chemical_formula_sum              "O8 S2"
_cell_length_a       5.141106422846625
_cell_length_b       4.885670430856839
_cell_length_c       6.2860026359558105
_cell_angle_alpha    90.18518261762456
_cell_angle_beta     89.77434671853929
_cell_angle_gamma    90.73269055410388

_space_group_name_H-M_alt    "P 1"
_space_group_IT_number       1

loop_
  _space_group_symop_operation_xyz
  'x, y, z'

loop_
  _atom_site_type_symbol
  _atom_site_label
  _atom_site_symmetry_multiplicity
  _atom_site_fract_x
  _atom_site_fract_y
  _atom_site_fract_z
  _atom_site_occupancy
  O   O1        1.0  0.52396559715271  0.5277877449989319  0.655777633190155  1.0000
  O   O2        1.0  0.8973078727722168  0.028002301231026646  0.1637125164270401  1.0000
  S   S1        1.0  0.39636245369911194  0.6375558376312256  0.8574625849723816  1.0000
  O   O3        1.0  0.11914734542369843  0.5403534770011902  0.860442042350769  1.0000
  O   O4        1.0  0.4149760901927948  0.9434720873832703  0.8587487936019897  1.0000
  O   O5        1.0  0.3056637942790985  0.04852268099784851  0.36130741238594055  1.0000
  S   S2        1.0  0.02673300728201866  0.14053361117839813  0.36177483201026917  1.0000
  O   O6        1.0  0.0034382343292236337  0.44880920648574835  0.3567049205303192  1.0000
  O   O7        1.0  0.899561882019043  0.03654711693525314  0.5634019374847412  1.0000
  O   O8        1.0  0.5276496410369873  0.5270423293113708  0.057552386075258255  1.0000
