data_image0
_chemical_formula_structural       CSr2BC2B
_chemical_formula_sum              "C3 Sr2 B2"
_cell_length_a       3.8818102690356615
_cell_length_b       3.9276539327398745
_cell_length_c       7.328176975250244
_cell_angle_alpha    89.75338489233825
_cell_angle_beta     88.80024563732363
_cell_angle_gamma    90.04198084438212

_space_group_name_H-M_alt    "P 1"
_space_group_IT_number       1

loop_
  _space_group_symop_operation_xyz
  'x, y, z'

loop_
  _atom_site_type_symbol
  _atom_site_label
  _atom_site_symmetry_multiplicity
  _atom_site_fract_x
  _atom_site_fract_y
  _atom_site_fract_z
  _atom_site_occupancy
  C   C1        1.0  0.33741480112075806  0.7973824143409729  0.327717661857605  1.0000
  Sr  Sr1       1.0  0.8360366821289062  0.2952824831008911  0.3312026262283325  1.0000
  Sr  Sr2       1.0  0.8329172134399414  0.2889420688152313  0.8312938213348389  1.0000
  B   B1        1.0  0.3328207731246948  0.7960001826286317  0.5324180722236633  1.0000
  C   C2        1.0  0.32985368371009827  0.7877975106239319  0.9198592901229858  1.0000
  C   C3        1.0  0.3344138562679291  0.7880147695541383  0.7252957820892334  1.0000
  B   B2        1.0  0.33872687816619873  0.7947345972061157  0.12089988589286804  1.0000
