data_image0
_chemical_formula_structural       Li2SrN2Li3NSr
_chemical_formula_sum              "Li5 Sr2 N3"
_cell_length_a       3.9789750244784585
_cell_length_b       5.170265272191904
_cell_length_c       9.122624397277832
_cell_angle_alpha    80.05256333603624
_cell_angle_beta     77.48647396340624
_cell_angle_gamma    89.88401223143745

_space_group_name_H-M_alt    "P 1"
_space_group_IT_number       1

loop_
  _space_group_symop_operation_xyz
  'x, y, z'

loop_
  _atom_site_type_symbol
  _atom_site_label
  _atom_site_symmetry_multiplicity
  _atom_site_fract_x
  _atom_site_fract_y
  _atom_site_fract_z
  _atom_site_occupancy
  Li  Li1       1.0  0.9994593858718872  0.6562851667404175  0.4163445830345154  1.0000
  Li  Li2       1.0  0.5915223956108093  0.7724751830101012  0.23103439807891846  1.0000
  Sr  Sr1       1.0  0.3586422801017761  0.4979723393917084  0.7147151231765747  1.0000
  N   N1        1.0  0.5012024641036987  0.4538251757621765  0.41632407903671265  1.0000
  N   N2        1.0  0.10744217783212662  0.8226351141929625  0.19686107337474823  1.0000
  Li  Li3       1.0  0.21854430437088013  0.8964882493019104  0.9827790260314941  1.0000
  Li  Li4       1.0  0.4410632848739624  0.09650035202503203  0.537965714931488  1.0000
  Li  Li5       1.0  0.8289978504180908  0.984429895877838  0.7666714191436768  1.0000
  N   N3        1.0  0.3334023058414459  0.9896688461303711  0.7580499649047852  1.0000
  Sr  Sr2       1.0  0.08515230566263199  0.2981758713722229  0.24299897253513336  1.0000
