data_image0
_chemical_formula_structural       AsSrOPdAsPd2SrAsSr
_chemical_formula_sum              "As3 Sr3 O1 Pd3"
_cell_length_a       4.288410972378747
_cell_length_b       4.289125086643231
_cell_length_c       14.013751983642578
_cell_angle_alpha    90.01360824122008
_cell_angle_beta     89.92528022469595
_cell_angle_gamma    120.12459863122655

_space_group_name_H-M_alt    "P 1"
_space_group_IT_number       1

loop_
  _space_group_symop_operation_xyz
  'x, y, z'

loop_
  _atom_site_type_symbol
  _atom_site_label
  _atom_site_symmetry_multiplicity
  _atom_site_fract_x
  _atom_site_fract_y
  _atom_site_fract_z
  _atom_site_occupancy
  As  As1       1.0  0.8278861641883851  0.6558533310890199  0.2677769362926483  1.0000
  Sr  Sr1       1.0  0.49691069126129156  0.9881339073181153  0.7247328758239745  1.0000
  O   O1        1.0  0.16076967120170596  0.3223466575145722  0.07164587825536728  1.0000
  Pd  Pd1       1.0  0.16204987466335297  0.3224608600139618  0.2310475558042526  1.0000
  As  As2       1.0  0.8306353092193604  0.6562497615814209  0.8729820251464843  1.0000
  Pd  Pd2       1.0  0.8302337527275085  0.6547317504882812  0.5743554830551147  1.0000
  Pd  Pd3       1.0  0.16305701434612274  0.3224436640739441  0.9058614373207091  1.0000
  Sr  Sr2       1.0  0.4963580667972565  0.9880300760269166  0.41563951969146723  1.0000
  As  As3       1.0  0.1634374409914017  0.32172992825508123  0.5679017901420593  1.0000
  Sr  Sr3       1.0  0.4951371252536774  0.9903409481048585  0.06861722469329834  1.0000
