data_image0
_chemical_formula_structural       Sr2EuSr
_chemical_formula_sum              "Sr3 Eu1"
_cell_length_a       4.756005279174471
_cell_length_b       6.594899893743515
_cell_length_c       6.622693061828613
_cell_angle_alpha    89.9293920078212
_cell_angle_beta     89.59030727967122
_cell_angle_gamma    89.56219420320086

_space_group_name_H-M_alt    "P 1"
_space_group_IT_number       1

loop_
  _space_group_symop_operation_xyz
  'x, y, z'

loop_
  _atom_site_type_symbol
  _atom_site_label
  _atom_site_symmetry_multiplicity
  _atom_site_fract_x
  _atom_site_fract_y
  _atom_site_fract_z
  _atom_site_occupancy
  Sr  Sr1       1.0  0.7400147914886475  0.5698715448379515  0.5993033647537231  1.0000
  Sr  Sr2       1.0  0.7388529181480408  0.067433662712574  0.09857145696878433  1.0000
  Eu  Eu1       1.0  0.23977872729301453  0.5687421560287474  0.09815744310617447  1.0000
  Sr  Sr3       1.0  0.2385508269071579  0.07038152962923049  0.5980231761932373  1.0000
