data_image0
_chemical_formula_structural       AuOSrO
_chemical_formula_sum              "Au1 O2 Sr1"
_cell_length_a       4.164535877355022
_cell_length_b       3.6240559621088932
_cell_length_c       4.16175651550293
_cell_angle_alpha    89.8384548604561
_cell_angle_beta     89.65022167369773
_cell_angle_gamma    89.50615937755921

_space_group_name_H-M_alt    "P 1"
_space_group_IT_number       1

loop_
  _space_group_symop_operation_xyz
  'x, y, z'

loop_
  _atom_site_type_symbol
  _atom_site_label
  _atom_site_symmetry_multiplicity
  _atom_site_fract_x
  _atom_site_fract_y
  _atom_site_fract_z
  _atom_site_occupancy
  Au  Au1       1.0  0.0755678042769432  0.19977377355098722  0.9376111626625061  1.0000
  O   O1        1.0  0.5751370191574097  0.1996406465768814  0.9361810088157654  1.0000
  Sr  Sr1       1.0  0.5758286118507385  0.6977369785308838  0.4380195438861847  1.0000
  O   O2        1.0  0.07539093494415283  0.19953984022140503  0.4368008077144623  1.0000
