data_image0
_chemical_formula_structural       CeO2SrO
_chemical_formula_sum              "Ce1 O3 Sr1"
_cell_length_a       3.8827909361249846
_cell_length_b       3.8835332747944022
_cell_length_c       6.025125503540039
_cell_angle_alpha    89.97057121835462
_cell_angle_beta     90.54233318777524
_cell_angle_gamma    121.15670867290912

_space_group_name_H-M_alt    "P 1"
_space_group_IT_number       1

loop_
  _space_group_symop_operation_xyz
  'x, y, z'

loop_
  _atom_site_type_symbol
  _atom_site_label
  _atom_site_symmetry_multiplicity
  _atom_site_fract_x
  _atom_site_fract_y
  _atom_site_fract_z
  _atom_site_occupancy
  Ce  Ce1       1.0  0.44313502311706543  0.42595869302749634  0.648530900478363  1.0000
  O   O1        1.0  0.44345399737358093  0.4268553555011749  0.017327643930912018  1.0000
  O   O2        1.0  0.7784457802772522  0.09238856285810469  0.4303770959377289  1.0000
  Sr  Sr1       1.0  0.11040578037500381  0.7597652673721313  0.15978512167930603  1.0000
  O   O3        1.0  0.10964445769786829  0.7583990097045897  0.7338240742683411  1.0000
