data_image0
_chemical_formula_structural       HgSr2Hg3
_chemical_formula_sum              "Hg4 Sr2"
_cell_length_a       5.64185153808772
_cell_length_b       5.982924146288871
_cell_length_c       6.116120338439941
_cell_angle_alpha    119.11705272198041
_cell_angle_beta     90.12293909248106
_cell_angle_gamma    89.32125927556878

_space_group_name_H-M_alt    "P 1"
_space_group_IT_number       1

loop_
  _space_group_symop_operation_xyz
  'x, y, z'

loop_
  _atom_site_type_symbol
  _atom_site_label
  _atom_site_symmetry_multiplicity
  _atom_site_fract_x
  _atom_site_fract_y
  _atom_site_fract_z
  _atom_site_occupancy
  Hg  Hg1       1.0  0.9740740060806276  0.10037018358707428  0.4100784659385681  1.0000
  Sr  Sr1       1.0  0.9751265645027162  0.8064197301864624  0.7548485398292542  1.0000
  Sr  Sr2       1.0  0.47424611449241644  0.3735269606113434  0.7595868706703186  1.0000
  Hg  Hg2       1.0  0.9739115834236146  0.44643595814704895  0.10345318913459782  1.0000
  Hg  Hg3       1.0  0.47406780719757086  0.7333648204803468  0.412127584218979  1.0000
  Hg  Hg4       1.0  0.47370600700378424  0.07757855206727982  0.10290834307670593  1.0000
