# generated using pymatgen
data_SrLi2P
_symmetry_space_group_name_H-M   'P 1'
_cell_length_a   4.25495876
_cell_length_b   6.67956288
_cell_length_c   7.11867787
_cell_angle_alpha   116.80802846
_cell_angle_beta   90.01167703
_cell_angle_gamma   90.01020558
_symmetry_Int_Tables_number   1
_chemical_formula_structural   SrLi2P
_chemical_formula_sum   'Sr2 Li4 P2'
_cell_volume   180.57679763
_cell_formula_units_Z   2
loop_
 _symmetry_equiv_pos_site_id
 _symmetry_equiv_pos_as_xyz
  1  'x, y, z'
loop_
 _atom_site_type_symbol
 _atom_site_label
 _atom_site_symmetry_multiplicity
 _atom_site_fract_x
 _atom_site_fract_y
 _atom_site_fract_z
 _atom_site_occupancy
  Sr  Sr0  1  0.21165314  0.82940102  0.26152911  1
  Sr  Sr1  1  0.71180820  0.44857620  0.42511949  1
  Li  Li2  1  0.21174022  0.46989751  0.78631924  1
  Li  Li3  1  0.71171900  0.06489432  0.70667425  1
  Li  Li4  1  0.21165142  0.21313870  0.97921636  1
  Li  Li5  1  0.71166637  0.80853387  0.90043843  1
  P  P6  1  0.21161708  0.80860065  0.69388069  1
  P  P7  1  0.71181736  0.46940449  -0.00741085  1
