data_image0
_chemical_formula_structural       SrAgPtLi
_chemical_formula_sum              "Sr1 Ag1 Pt1 Li1"
_cell_length_a       4.957270565556992
_cell_length_b       4.963217975272725
_cell_length_c       4.965297222137451
_cell_angle_alpha    59.92198648027563
_cell_angle_beta     59.87280341673394
_cell_angle_gamma    59.9494249512437

_space_group_name_H-M_alt    "P 1"
_space_group_IT_number       1

loop_
  _space_group_symop_operation_xyz
  'x, y, z'

loop_
  _atom_site_type_symbol
  _atom_site_label
  _atom_site_symmetry_multiplicity
  _atom_site_fract_x
  _atom_site_fract_y
  _atom_site_fract_z
  _atom_site_occupancy
  Sr  Sr1       1.0  0.5100175142288208  0.03927868977189064  0.5520616173744202  1.0000
  Ag  Ag1       1.0  0.009574724361300468  0.5401492714881897  0.05288664624094963  1.0000
  Pt  Pt1       1.0  0.7587433457374573  0.2897963225841522  0.8021107912063599  1.0000
  Li  Li1       1.0  0.259250283241272  0.7886635661125183  0.30153873562812805  1.0000
