data_image0
_chemical_formula_structural       O2Sr2
_chemical_formula_sum              "O2 Sr2"
_cell_length_a       3.671360414404397
_cell_length_b       3.6663521071424787
_cell_length_c       6.359745502471924
_cell_angle_alpha    73.39286257158385
_cell_angle_beta     73.24950331702273
_cell_angle_gamma    60.02317743478261

_space_group_name_H-M_alt    "P 1"
_space_group_IT_number       1

loop_
  _space_group_symop_operation_xyz
  'x, y, z'

loop_
  _atom_site_type_symbol
  _atom_site_label
  _atom_site_symmetry_multiplicity
  _atom_site_fract_x
  _atom_site_fract_y
  _atom_site_fract_z
  _atom_site_occupancy
  O   O1        1.0  0.12771229445934298  0.33524501323699946  0.14775300025939941  1.0000
  O   O2        1.0  0.6254187822341918  0.8357503414154053  0.647367000579834  1.0000
  Sr  Sr1       1.0  0.8773770332336425  0.08408371359109879  0.8973921537399292  1.0000
  Sr  Sr2       1.0  0.37759417295455927  0.5874773859977722  0.3974713087081909  1.0000
