data_image0
_chemical_formula_structural       SrPrO2PrO2SrNbO2NbO4
_chemical_formula_sum              "Sr2 Pr2 O10 Nb2"
_cell_length_a       3.7070464043543674
_cell_length_b       5.627529974101232
_cell_length_c       10.843029022216797
_cell_angle_alpha    89.94348951294944
_cell_angle_beta     90.01540458140853
_cell_angle_gamma    90.0447812249432

_space_group_name_H-M_alt    "P 1"
_space_group_IT_number       1

loop_
  _space_group_symop_operation_xyz
  'x, y, z'

loop_
  _atom_site_type_symbol
  _atom_site_label
  _atom_site_symmetry_multiplicity
  _atom_site_fract_x
  _atom_site_fract_y
  _atom_site_fract_z
  _atom_site_occupancy
  Sr  Sr1       1.0  0.19995540380477905  0.4204576015472412  0.8929710984230042  1.0000
  Pr  Pr1       1.0  0.7007723450660706  0.42105475068092346  0.574179470539093  1.0000
  O   O1        1.0  0.6994601488113403  0.687067985534668  0.7622960209846497  1.0000
  O   O2        1.0  0.19932398200035095  0.9223072528839111  0.914853572845459  1.0000
  Pr  Pr2       1.0  0.20165382325649261  0.9200353026390076  0.3821425437927246  1.0000
  O   O3        1.0  0.20103734731674194  0.6530951857566833  0.19468086957931519  1.0000
  O   O4        1.0  0.701505720615387  0.19380222260951993  0.3740244209766388  1.0000
  Sr  Sr2       1.0  0.7001977562904358  0.9202452301979064  0.062351565808057785  1.0000
  Nb  Nb1       1.0  0.7044121026992798  0.4200049042701721  0.22534184157848358  1.0000
  O   O5        1.0  0.6996463537216187  0.14923706650733948  0.7624541521072388  1.0000
  O   O6        1.0  0.20074757933616638  0.18845359981060025  0.1933569312095642  1.0000
  Nb  Nb2       1.0  0.19932126998901367  0.9195145964622498  0.7316867709159851  1.0000
  O   O7        1.0  0.2011016607284546  0.14681720733642578  0.582822859287262  1.0000
  O   O8        1.0  0.7011736631393433  0.4222205877304077  0.0429956279695034  1.0000
  O   O9        1.0  0.20071977376937866  0.6923730373382567  0.581920862197876  1.0000
  O   O10       1.0  0.7026073932647705  0.6501849889755249  0.37486568093299866  1.0000
