# generated using pymatgen
data_SrTa3SO7
_symmetry_space_group_name_H-M   'P 1'
_cell_length_a   5.75532539
_cell_length_b   6.27352011
_cell_length_c   5.38153300
_cell_angle_alpha   89.93108970
_cell_angle_beta   87.75764751
_cell_angle_gamma   81.77103528
_symmetry_Int_Tables_number   1
_chemical_formula_structural   SrTa3SO7
_chemical_formula_sum   'Sr1 Ta3 S1 O7'
_cell_volume   192.15670205
_cell_formula_units_Z   1
loop_
 _symmetry_equiv_pos_site_id
 _symmetry_equiv_pos_as_xyz
  1  'x, y, z'
loop_
 _atom_site_type_symbol
 _atom_site_label
 _atom_site_symmetry_multiplicity
 _atom_site_fract_x
 _atom_site_fract_y
 _atom_site_fract_z
 _atom_site_occupancy
  Sr  Sr0  1  0.18834146  0.01090773  0.52583782  1
  Ta  Ta1  1  0.64708376  0.45099006  0.49802144  1
  Ta  Ta2  1  0.66193442  0.19281551  0.00081504  1
  Ta  Ta3  1  0.68310570  0.71763913  0.97784426  1
  S  S4  1  0.95220867  0.64783120  0.31312886  1
  O  O5  1  0.84410296  0.40873820  0.81051988  1
  O  O6  1  0.46834997  0.25328684  0.68839055  1
  O  O7  1  0.48133783  0.70388284  0.68096339  1
  O  O8  1  0.49684773  0.48669274  0.16954041  1
  O  O9  1  0.83111394  0.19221135  0.30761004  1
  O  O10  1  0.86701907  0.93964167  0.84759681  1
  O  O11  1  0.46590165  0.96724526  0.11882965  1
