# generated using pymatgen
data_SrY2CuO6
_symmetry_space_group_name_H-M   'P 1'
_cell_length_a   3.83868824
_cell_length_b   3.83889615
_cell_length_c   9.25069594
_cell_angle_alpha   89.93348525
_cell_angle_beta   89.96311161
_cell_angle_gamma   86.76381333
_symmetry_Int_Tables_number   1
_chemical_formula_structural   SrY2CuO6
_chemical_formula_sum   'Sr1 Y2 Cu1 O6'
_cell_volume   136.10376176
_cell_formula_units_Z   1
loop_
 _symmetry_equiv_pos_site_id
 _symmetry_equiv_pos_as_xyz
  1  'x, y, z'
loop_
 _atom_site_type_symbol
 _atom_site_label
 _atom_site_symmetry_multiplicity
 _atom_site_fract_x
 _atom_site_fract_y
 _atom_site_fract_z
 _atom_site_occupancy
  Sr  Sr0  1  0.79800614  0.84019994  0.07561516  1
  Y  Y1  1  0.29793937  0.34019323  0.38775080  1
  Y  Y2  1  0.79799145  0.84001800  0.67152979  1
  Cu  Cu3  1  0.29800525  0.34035760  0.86514137  1
  O  O4  1  0.29796504  0.84020435  0.24232856  1
  O  O5  1  0.79797147  0.34021245  0.86217173  1
  O  O6  1  0.79804255  0.34046591  0.24245012  1
  O  O7  1  0.29825899  0.84022999  0.54735873  1
  O  O8  1  0.29803507  0.84032705  0.86130898  1
  O  O9  1  0.79803800  0.34054947  0.54764087  1
