data_image0
_chemical_formula_structural       AsYAsZn2As2SrAs3Zn
_chemical_formula_sum              "As7 Y1 Zn3 Sr1"
_cell_length_a       3.9871032409276514
_cell_length_b       3.9961383297064286
_cell_length_c       20.540403366088867
_cell_angle_alpha    95.54399902869359
_cell_angle_beta     89.94032031150039
_cell_angle_gamma    119.89432501280247

_space_group_name_H-M_alt    "P 1"
_space_group_IT_number       1

loop_
  _space_group_symop_operation_xyz
  'x, y, z'

loop_
  _atom_site_type_symbol
  _atom_site_label
  _atom_site_symmetry_multiplicity
  _atom_site_fract_x
  _atom_site_fract_y
  _atom_site_fract_z
  _atom_site_occupancy
  As  As1       1.0  0.5707725286483765  0.8754205107688905  0.9771069288253784  1.0000
  Y   Y1        1.0  0.8773040175437926  0.48584988713264465  0.8940815925598145  1.0000
  As  As2       1.0  0.060057993978261996  0.8477196097373964  0.4332314729690552  1.0000
  Zn  Zn1       1.0  0.9868065118789672  0.7189061641693115  0.23419661819934845  1.0000
  Zn  Zn2       1.0  0.26089972257614136  0.26041850447654724  0.04926280677318573  1.0000
  As  As3       1.0  0.4887885153293609  0.7030710577964783  0.7207121849060059  1.0000
  As  As4       1.0  0.6673740744590759  0.07307966053485872  0.26890575885772705  1.0000
  Sr  Sr1       1.0  0.4284771084785461  0.5817962884902954  0.536700963973999  1.0000
  As  As5       1.0  0.9463973641395568  0.6380797028541566  0.11276102811098099  1.0000
  As  As6       1.0  0.13065887987613678  0.9859698414802551  0.644791305065155  1.0000
  As  As7       1.0  0.18040110170841217  0.08789023011922836  0.8017424941062927  1.0000
  Zn  Zn3       1.0  0.7103806138038635  0.15330688655376437  0.38534075021743774  1.0000
