data_image0
_chemical_formula_structural       STaSCTa2CTaSTa2CSCSTa
_chemical_formula_sum              "S5 Ta7 C4"
_cell_length_a       3.3376916551769873
_cell_length_b       3.3383095813273567
_cell_length_c       27.28396987915039
_cell_angle_alpha    90.07572881805083
_cell_angle_beta     89.98531076744166
_cell_angle_gamma    59.97532810750165

_space_group_name_H-M_alt    "P 1"
_space_group_IT_number       1

loop_
  _space_group_symop_operation_xyz
  'x, y, z'

loop_
  _atom_site_type_symbol
  _atom_site_label
  _atom_site_symmetry_multiplicity
  _atom_site_fract_x
  _atom_site_fract_y
  _atom_site_fract_z
  _atom_site_occupancy
  S   S1        1.0  0.6346906423568726  0.5821967720985413  0.1452556997537613  1.0000
  Ta  Ta1       1.0  0.2992955446243286  0.24770464003086093  0.6634560823440551  1.0000
  S   S2        1.0  0.304447203874588  0.2469514608383179  0.022894678637385365  1.0000
  C   C1        1.0  0.6424193382263184  0.584584414958954  0.4775689244270324  1.0000
  Ta  Ta2       1.0  0.9695985913276671  0.916483461856842  0.45147970318794245  1.0000
  Ta  Ta3       1.0  0.30803415179252625  0.24627071619033816  0.8759531974792479  1.0000
  C   C2        1.0  0.6347292065620422  0.5762926936149597  0.6973385214805602  1.0000
  Ta  Ta4       1.0  0.3028163015842438  0.2502412796020508  0.2020512223243713  1.0000
  S   S3        1.0  0.9764837026596069  0.9122432470321655  0.8151398301124572  1.0000
  Ta  Ta5       1.0  0.9728984236717223  0.9117999672889711  0.9604917764663695  1.0000
  Ta  Ta6       1.0  0.638526201248169  0.5775896310806276  0.30669975280761713  1.0000
  C   C3        1.0  0.3084884881973266  0.24562118947505954  0.2779456377029419  1.0000
  S   S4        1.0  0.30917009711265564  0.24664382636547091  0.3790895044803619  1.0000
  C   C4        1.0  0.6414283514022827  0.5790231227874756  0.9171807169914244  1.0000
  S   S5        1.0  0.9706772565841674  0.9122781753540039  0.6027902364730835  1.0000
  Ta  Ta7       1.0  0.6373841166496277  0.581535816192627  0.5509569644927979  1.0000
