data_image0
_chemical_formula_structural       Ti2TaTi4S
_chemical_formula_sum              "Ti6 Ta1 S1"
_cell_length_a       2.8481782786073344
_cell_length_b       2.852409447347149
_cell_length_c       16.538747787475586
_cell_angle_alpha    89.9246176967569
_cell_angle_beta     90.11849263823447
_cell_angle_gamma    89.7257225949984

_space_group_name_H-M_alt    "P 1"
_space_group_IT_number       1

loop_
  _space_group_symop_operation_xyz
  'x, y, z'

loop_
  _atom_site_type_symbol
  _atom_site_label
  _atom_site_symmetry_multiplicity
  _atom_site_fract_x
  _atom_site_fract_y
  _atom_site_fract_z
  _atom_site_occupancy
  Ti  Ti1       1.0  0.5854071974754333  0.1720866560935974  0.9302178025245667  1.0000
  Ti  Ti2       1.0  0.08263944834470749  0.6720994114875793  0.0595957450568676  1.0000
  Ta  Ta1       1.0  0.08615557104349136  0.6712841987609864  0.7949807047843933  1.0000
  Ti  Ti3       1.0  0.08722848445177078  0.6695528626441957  0.5687393546104431  1.0000
  Ti  Ti4       1.0  0.08502784371376039  0.6727224588394165  0.3121523857116699  1.0000
  Ti  Ti5       1.0  0.5817607641220093  0.17105671763420105  0.18438512086868286  1.0000
  Ti  Ti6       1.0  0.5868203043937683  0.17015117406845093  0.437315434217453  1.0000
  S   S1        1.0  0.58696448802948  0.17100080847740173  0.680330216884613  1.0000
