data_image0
_chemical_formula_structural       TbClTb3Cl5
_chemical_formula_sum              "Tb4 Cl6"
_cell_length_a       5.6975836794031265
_cell_length_b       4.024144067727322
_cell_length_c       12.890059471130371
_cell_angle_alpha    89.58461770611576
_cell_angle_beta     88.26323565218006
_cell_angle_gamma    88.69760827398689

_space_group_name_H-M_alt    "P 1"
_space_group_IT_number       1

loop_
  _space_group_symop_operation_xyz
  'x, y, z'

loop_
  _atom_site_type_symbol
  _atom_site_label
  _atom_site_symmetry_multiplicity
  _atom_site_fract_x
  _atom_site_fract_y
  _atom_site_fract_z
  _atom_site_occupancy
  Tb  Tb1       1.0  0.9661614298820497  0.42368605732917786  0.13343355059623718  1.0000
  Cl  Cl1       1.0  0.45826229453086853  0.42085596919059753  0.793190598487854  1.0000
  Tb  Tb2       1.0  0.4695375859737396  0.9211714863777161  0.6377082467079163  1.0000
  Tb  Tb3       1.0  0.9600039124488831  0.42171868681907654  0.8262280821800232  1.0000
  Tb  Tb4       1.0  0.46269553899765015  0.9218533635139465  0.3285115957260132  1.0000
  Cl  Cl2       1.0  0.9628504514694214  0.922437846660614  0.28715604543685913  1.0000
  Cl  Cl3       1.0  0.9692057371139527  0.9206225872039795  0.6602991819381714  1.0000
  Cl  Cl4       1.0  0.46823230385780334  0.4217764735221863  0.48148444294929504  1.0000
  Cl  Cl5       1.0  0.46418389678001404  0.4242924749851227  0.1677323579788208  1.0000
  Cl  Cl6       1.0  0.9611279368400574  0.9218240976333618  0.979461669921875  1.0000
