data_image0
_chemical_formula_structural       TbSi2TbSi
_chemical_formula_sum              "Tb2 Si3"
_cell_length_a       4.080537879586999
_cell_length_b       3.8818567335829064
_cell_length_c       6.65238094329834
_cell_angle_alpha    73.20876068204731
_cell_angle_beta     89.82011581267194
_cell_angle_gamma    89.931147360888

_space_group_name_H-M_alt    "P 1"
_space_group_IT_number       1

loop_
  _space_group_symop_operation_xyz
  'x, y, z'

loop_
  _atom_site_type_symbol
  _atom_site_label
  _atom_site_symmetry_multiplicity
  _atom_site_fract_x
  _atom_site_fract_y
  _atom_site_fract_z
  _atom_site_occupancy
  Tb  Tb1       1.0  0.0517883375287056  0.7894221544265748  0.8344130516052245  1.0000
  Si  Si1       1.0  0.547366201877594  0.6130316257476808  0.19179691374301908  1.0000
  Si  Si2       1.0  0.5510013699531555  0.2211800962686539  0.97457218170166  1.0000
  Tb  Tb2       1.0  0.04927749186754227  0.04240633547306061  0.33168873190879816  1.0000
  Si  Si3       1.0  0.5502039790153503  0.41674384474754333  0.5837061405181885  1.0000
