data_image0
_chemical_formula_structural       TbSAgSiAgTbSiAg
_chemical_formula_sum              "Tb2 S1 Ag3 Si2"
_cell_length_a       4.070046600971854
_cell_length_b       3.887101394183813
_cell_length_c       10.454124450683594
_cell_angle_alpha    89.73007340724932
_cell_angle_beta     89.96754544365874
_cell_angle_gamma    89.9422395924138

_space_group_name_H-M_alt    "P 1"
_space_group_IT_number       1

loop_
  _space_group_symop_operation_xyz
  'x, y, z'

loop_
  _atom_site_type_symbol
  _atom_site_label
  _atom_site_symmetry_multiplicity
  _atom_site_fract_x
  _atom_site_fract_y
  _atom_site_fract_z
  _atom_site_occupancy
  Tb  Tb1       1.0  0.8648673295974731  0.4327681064605713  0.26597684621810913  1.0000
  S   S1        1.0  0.8709445595741272  0.9340404868125917  0.8095059990882874  1.0000
  Ag  Ag1       1.0  0.8684036731719971  0.4330738484859467  0.981270968914032  1.0000
  Si  Si1       1.0  0.36545097827911377  0.931621551513672  0.3340657353401184  1.0000
  Ag  Ag2       1.0  0.3698177635669708  0.4266660511493683  0.7653998136520386  1.0000
  Tb  Tb2       1.0  0.8694335222244263  0.9301279187202454  0.5577738285064697  1.0000
  Si  Si2       1.0  0.36833974719047546  0.43053945899009705  0.4868850111961365  1.0000
  Ag  Ag3       1.0  0.36666539311408997  0.9327678084373474  0.06832938641309738  1.0000
