# generated using pymatgen
data_Tb5NiBiP2S
_symmetry_space_group_name_H-M   'P 1'
_cell_length_a   3.98191688
_cell_length_b   3.98176060
_cell_length_c   17.96447810
_cell_angle_alpha   83.61701759
_cell_angle_beta   96.37963604
_cell_angle_gamma   119.98486140
_symmetry_Int_Tables_number   1
_chemical_formula_structural   Tb5NiBiP2S
_chemical_formula_sum   'Tb5 Ni1 Bi1 P2 S1'
_cell_volume   244.66500707
_cell_formula_units_Z   1
loop_
 _symmetry_equiv_pos_site_id
 _symmetry_equiv_pos_as_xyz
  1  'x, y, z'
loop_
 _atom_site_type_symbol
 _atom_site_label
 _atom_site_symmetry_multiplicity
 _atom_site_fract_x
 _atom_site_fract_y
 _atom_site_fract_z
 _atom_site_occupancy
  Tb  Tb0  1  0.32709303  0.29065582  0.63632596  1
  Tb  Tb1  1  0.05496530  0.56255450  0.81911211  1
  Tb  Tb2  1  0.19605677  0.42157346  0.24310122  1
  Tb  Tb3  1  0.26193667  0.35560302  0.44096783  1
  Tb  Tb4  1  0.80438174  0.81365872  0.06755995  1
  Ni  Ni5  1  0.49870618  0.11926328  0.15027314  1
  Bi  Bi6  1  0.42855496  0.18907575  0.93988897  1
  P  P7  1  0.89618694  0.72124469  0.34391638  1
  P  P8  1  0.96290304  0.65480042  0.54409120  1
  S  S9  1  0.69177462  0.92585417  0.73014543  1
