data_image0
_chemical_formula_structural       TbSTb3S3TbSSmS
_chemical_formula_sum              "Tb5 S6 Sm1"
_cell_length_a       3.956018692813784
_cell_length_b       3.945517495843739
_cell_length_c       16.847463607788086
_cell_angle_alpha    90.38716496520685
_cell_angle_beta     90.37480915151697
_cell_angle_gamma    89.91916721131723

_space_group_name_H-M_alt    "P 1"
_space_group_IT_number       1

loop_
  _space_group_symop_operation_xyz
  'x, y, z'

loop_
  _atom_site_type_symbol
  _atom_site_label
  _atom_site_symmetry_multiplicity
  _atom_site_fract_x
  _atom_site_fract_y
  _atom_site_fract_z
  _atom_site_occupancy
  Tb  Tb1       1.0  0.31075426936149597  0.15572482347488403  0.7481580376625061  1.0000
  S   S1        1.0  0.3117012083530426  0.1512850522994995  0.9175216555595398  1.0000
  Tb  Tb2       1.0  0.3118270933628082  0.1512563079595566  0.08355738967657089  1.0000
  Tb  Tb3       1.0  0.3105336129665375  0.1539065390825272  0.42071112990379333  1.0000
  Tb  Tb4       1.0  0.8103160262107849  0.655521810054779  0.9156200289726257  1.0000
  S   S2        1.0  0.8065952658653259  0.6503967046737671  0.7498753070831299  1.0000
  S   S3        1.0  0.8123602271080017  0.6515015959739685  0.08249411731958389  1.0000
  S   S4        1.0  0.3117225170135498  0.15366749465465546  0.585729718208313  1.0000
  Tb  Tb5       1.0  0.81576007604599  0.6548919081687927  0.5796118378639221  1.0000
  S   S5        1.0  0.8136582970619202  0.6551159620285035  0.4169325530529022  1.0000
  Sm  Sm1       1.0  0.8153964877128601  0.6509025692939759  0.24797587096691132  1.0000
  S   S6        1.0  0.3120064437389374  0.1519184410572052  0.2505629062652588  1.0000
