data_image0
_chemical_formula_structural       TbCTbGaTbGa4NiGaTb3AuGa2Tb
_chemical_formula_sum              "Tb7 C1 Ga8 Ni1 Au1"
_cell_length_a       4.100883037992424
_cell_length_b       4.005249555984481
_cell_length_c       23.733396530151367
_cell_angle_alpha    94.9505302135868
_cell_angle_beta     90.07344069433863
_cell_angle_gamma    89.98867122117687

_space_group_name_H-M_alt    "P 1"
_space_group_IT_number       1

loop_
  _space_group_symop_operation_xyz
  'x, y, z'

loop_
  _atom_site_type_symbol
  _atom_site_label
  _atom_site_symmetry_multiplicity
  _atom_site_fract_x
  _atom_site_fract_y
  _atom_site_fract_z
  _atom_site_occupancy
  Tb  Tb1       1.0  0.8833838701248169  0.03960561752319336  0.7063431143760681  1.0000
  C   C1        1.0  0.8840076923370361  0.5085627436637877  0.6390107274055481  1.0000
  Tb  Tb2       1.0  0.38726893067359924  0.2841152846813202  0.19524182379245758  1.0000
  Ga  Ga1       1.0  0.3823109567165375  0.09579284489154816  0.8191841244697571  1.0000
  Tb  Tb3       1.0  0.8883941173553467  0.7840321660041809  0.1995786726474762  1.0000
  Ga  Ga2       1.0  0.37996169924736023  0.4444210231304168  0.5258020162582397  1.0000
  Ga  Ga3       1.0  0.8829292058944702  0.3263320326805115  0.29495078325271606  1.0000
  Ga  Ga4       1.0  0.8818954825401306  0.6691360473632812  0.9772809147834778  1.0000
  Ga  Ga5       1.0  0.8847044110298157  0.6086260676383972  0.8529052734375  1.0000
  Ni  Ni1       1.0  0.3829340934753418  0.5057413578033447  0.6389609575271606  1.0000
  Ga  Ga6       1.0  0.8831910490989685  0.3936752676963806  0.4219181537628174  1.0000
  Tb  Tb4       1.0  0.3817194104194641  0.7160593271255493  0.06603310257196426  1.0000
  Tb  Tb5       1.0  0.38234683871269226  0.15369588136672974  0.9408011436462402  1.0000
  Tb  Tb6       1.0  0.8843392729759216  0.9675779342651366  0.5703493356704712  1.0000
  Au  Au1       1.0  0.37950190901756287  0.9108080267906188  0.45989754796028137  1.0000
  Ga  Ga7       1.0  0.38159969449043274  0.5607932806015015  0.7518632411956787  1.0000
  Ga  Ga8       1.0  0.8828182220458984  0.2147683799266815  0.05674487352371216  1.0000
  Tb  Tb7       1.0  0.38720405101776123  0.8483417034149169  0.33597683906555176  1.0000
