data_image0
_chemical_formula_structural       CTbRuTb2C2BRu2CTbCTbCRuTb3C
_chemical_formula_sum              "C7 Tb8 Ru4 B1"
_cell_length_a       3.575503643498652
_cell_length_b       8.035261851540978
_cell_length_c       11.868867874145508
_cell_angle_alpha    94.70047764971922
_cell_angle_beta     90.05627643308793
_cell_angle_gamma    90.12972146500289

_space_group_name_H-M_alt    "P 1"
_space_group_IT_number       1

loop_
  _space_group_symop_operation_xyz
  'x, y, z'

loop_
  _atom_site_type_symbol
  _atom_site_label
  _atom_site_symmetry_multiplicity
  _atom_site_fract_x
  _atom_site_fract_y
  _atom_site_fract_z
  _atom_site_occupancy
  C   C1        1.0  0.5748329162597656  0.022798942402005196  0.6573355197906494  1.0000
  Tb  Tb1       1.0  0.0757066085934639  0.43075600266456604  0.8554974794387817  1.0000
  Ru  Ru1       1.0  0.5782281756401062  0.4665689468383789  0.08080274611711502  1.0000
  Tb  Tb2       1.0  0.07347328960895538  0.8105157017707825  0.7128492593765259  1.0000
  Tb  Tb3       1.0  0.07627556473016739  0.7199711799621582  0.2131996899843216  1.0000
  C   C2        1.0  0.5776171088218689  0.2883705198764801  0.965857744216919  1.0000
  C   C3        1.0  0.5759380459785461  0.6141017079353333  0.7762433290481567  1.0000
  B   B1        1.0  0.07561687380075455  0.5537150502204895  0.5215199589729309  1.0000
  Ru  Ru2       1.0  0.5758634209632874  0.5140784382820129  0.6227976679801941  1.0000
  Ru  Ru3       1.0  0.5763586163520813  0.09919624030590057  0.8343865871429443  1.0000
  C   C4        1.0  0.0792364627122879  0.08713823556900024  0.3742798864841461  1.0000
  Tb  Tb4       1.0  0.577315092086792  0.7889232039451599  0.9651927351951599  1.0000
  C   C5        1.0  0.5765263438224792  0.9311356544494629  0.1485065370798111  1.0000
  Tb  Tb5       1.0  0.5749073624610901  0.8305333852767944  0.4705836772918701  1.0000
  C   C6        1.0  0.07568302005529404  0.9791557788848877  0.8973369002342224  1.0000
  Ru  Ru4       1.0  0.5806506872177124  0.03668154403567314  0.2861844003200531  1.0000
  Tb  Tb6       1.0  0.07740245014429092  0.152823343873024  0.08566877990961075  1.0000
  Tb  Tb7       1.0  0.5751680135726929  0.39465081691741943  0.3551748991012573  1.0000
  Tb  Tb8       1.0  0.0762285441160202  0.2075457125902176  0.5815350413322449  1.0000
  C   C7        1.0  0.07304167002439499  0.6060049533843994  0.4041340947151184  1.0000
