data_image0
_chemical_formula_structural       CuSnNi3Tb
_chemical_formula_sum              "Cu1 Sn1 Ni3 Tb1"
_cell_length_a       4.213008006907093
_cell_length_b       4.201449533712134
_cell_length_c       6.612423896789551
_cell_angle_alpha    71.2522252469972
_cell_angle_beta     71.21598586347335
_cell_angle_gamma    59.767290412792164

_space_group_name_H-M_alt    "P 1"
_space_group_IT_number       1

loop_
  _space_group_symop_operation_xyz
  'x, y, z'

loop_
  _atom_site_type_symbol
  _atom_site_label
  _atom_site_symmetry_multiplicity
  _atom_site_fract_x
  _atom_site_fract_y
  _atom_site_fract_z
  _atom_site_occupancy
  Cu  Cu1       1.0  0.00039362907409674474  0.5866188406944274  0.2001846432685852  1.0000
  Sn  Sn1       1.0  0.5409230589866639  0.1281982809305191  0.576505184173584  1.0000
  Ni  Ni1       1.0  0.2837669849395753  0.8696696758270264  0.3500629663467407  1.0000
  Ni  Ni2       1.0  0.14323724806308752  0.7291444540023804  0.7719012498855591  1.0000
  Ni  Ni3       1.0  0.8738601803779603  0.4603099524974823  0.5760575532913208  1.0000
  Tb  Tb1       1.0  0.7315890789031984  0.31720253825187683  0.007161795627325739  1.0000
