data_image0
_chemical_formula_structural       GaTbGaTb
_chemical_formula_sum              "Ga2 Tb2"
_cell_length_a       4.738827532148747
_cell_length_b       4.748702013315741
_cell_length_c       5.484004974365234
_cell_angle_alpha    90.05697994158756
_cell_angle_beta     90.03288303379078
_cell_angle_gamma    59.743487828409975

_space_group_name_H-M_alt    "P 1"
_space_group_IT_number       1

loop_
  _space_group_symop_operation_xyz
  'x, y, z'

loop_
  _atom_site_type_symbol
  _atom_site_label
  _atom_site_symmetry_multiplicity
  _atom_site_fract_x
  _atom_site_fract_y
  _atom_site_fract_z
  _atom_site_occupancy
  Ga  Ga1       1.0  0.04139263927936555  0.24012871086597443  0.5840133428573608  1.0000
  Tb  Tb1       1.0  0.37466859817504883  0.5722748041152954  0.8333508968353271  1.0000
  Ga  Ga2       1.0  0.041817300021648414  0.23837649822235107  0.08346442133188248  1.0000
  Tb  Tb2       1.0  0.7084430456161499  0.9062957763671875  0.33576372265815735  1.0000
