data_image0
_chemical_formula_structural       ITbI
_chemical_formula_sum              "I2 Tb1"
_cell_length_a       4.390793584838064
_cell_length_b       4.389230655681918
_cell_length_c       8.401816368103027
_cell_angle_alpha    75.33127512349934
_cell_angle_beta     74.8042301542378
_cell_angle_gamma    59.96602329979202

_space_group_name_H-M_alt    "P 1"
_space_group_IT_number       1

loop_
  _space_group_symop_operation_xyz
  'x, y, z'

loop_
  _atom_site_type_symbol
  _atom_site_label
  _atom_site_symmetry_multiplicity
  _atom_site_fract_x
  _atom_site_fract_y
  _atom_site_fract_z
  _atom_site_occupancy
  I   I1        1.0  0.543563961982727  0.18799033761024475  0.7171630859375  1.0000
  Tb  Tb1       1.0  0.28436967730522156  0.9321869611740112  0.49305635690689087  1.0000
  I   I2        1.0  0.02681366540491586  0.6766080856323241  0.2663221061229706  1.0000
