data_image0
_chemical_formula_structural       HNi2H2TbH5Tb
_chemical_formula_sum              "H8 Ni2 Tb2"
_cell_length_a       3.6926300209882617
_cell_length_b       4.888784328619041
_cell_length_c       6.3066792488098145
_cell_angle_alpha    89.29558460489034
_cell_angle_beta     90.09628084795145
_cell_angle_gamma    90.64703312937748

_space_group_name_H-M_alt    "P 1"
_space_group_IT_number       1

loop_
  _space_group_symop_operation_xyz
  'x, y, z'

loop_
  _atom_site_type_symbol
  _atom_site_label
  _atom_site_symmetry_multiplicity
  _atom_site_fract_x
  _atom_site_fract_y
  _atom_site_fract_z
  _atom_site_occupancy
  H   H1        1.0  0.08319923281669615  0.10302946716547014  0.9756295680999756  1.0000
  Ni  Ni1       1.0  0.5870131850242615  0.8435794115066528  0.3178759813308716  1.0000
  Ni  Ni2       1.0  0.08761008828878401  0.3488597869873047  0.8161953091621399  1.0000
  H   H2        1.0  0.086508110165596  0.5957127809524537  0.9797407984733582  1.0000
  H   H3        1.0  0.09111788868904112  0.5954653024673462  0.6591511368751526  1.0000
  Tb  Tb1       1.0  0.5869014859199524  0.8500741720199586  0.8148313164710999  1.0000
  H   H4        1.0  0.5882477760314941  0.13028113543987274  0.31325164437294006  1.0000
  H   H5        1.0  0.08971735835075377  0.10294415801763535  0.6501726508140564  1.0000
  H   H6        1.0  0.08837730437517165  0.8436354994773866  0.31694605946540827  1.0000
  H   H7        1.0  0.5888491868972778  0.5458306670188904  0.32132914662361145  1.0000
  H   H8        1.0  0.5889489650726318  0.3495733737945557  0.8158280849456785  1.0000
  Tb  Tb2       1.0  0.08668735623359679  0.34530109167099  0.3153688609600067  1.0000
