# generated using pymatgen
data_TbSnPd2
_symmetry_space_group_name_H-M   'P 1'
_cell_length_a   4.81586506
_cell_length_b   4.81302297
_cell_length_c   4.81547198
_cell_angle_alpha   60.07535454
_cell_angle_beta   60.06970760
_cell_angle_gamma   60.06086248
_symmetry_Int_Tables_number   1
_chemical_formula_structural   TbSnPd2
_chemical_formula_sum   'Tb1 Sn1 Pd2'
_cell_volume   79.04804914
_cell_formula_units_Z   1
loop_
 _symmetry_equiv_pos_site_id
 _symmetry_equiv_pos_as_xyz
  1  'x, y, z'
loop_
 _atom_site_type_symbol
 _atom_site_label
 _atom_site_symmetry_multiplicity
 _atom_site_fract_x
 _atom_site_fract_y
 _atom_site_fract_z
 _atom_site_occupancy
  Tb  Tb0  1  0.99663086  0.73861040  0.13593800  1
  Sn  Sn1  1  0.49626552  0.23887065  0.63608743  1
  Pd  Pd2  1  0.74727692  0.48843803  0.88509330  1
  Pd  Pd3  1  0.24607416  0.98853781  0.38715548  1
