data_image0
_chemical_formula_structural       TbTeTb2Te3Tb
_chemical_formula_sum              "Tb4 Te4"
_cell_length_a       4.332763945681988
_cell_length_b       7.637980890309137
_cell_length_c       7.516191482543945
_cell_angle_alpha    90.05690481007863
_cell_angle_beta     90.04312832277373
_cell_angle_gamma    90.00263212720405

_space_group_name_H-M_alt    "P 1"
_space_group_IT_number       1

loop_
  _space_group_symop_operation_xyz
  'x, y, z'

loop_
  _atom_site_type_symbol
  _atom_site_label
  _atom_site_symmetry_multiplicity
  _atom_site_fract_x
  _atom_site_fract_y
  _atom_site_fract_z
  _atom_site_occupancy
  Tb  Tb1       1.0  0.6820325255393982  0.20271064341068268  0.7965854406356812  1.0000
  Te  Te1       1.0  0.18465080857276917  0.4540601670742035  0.965516984462738  1.0000
  Tb  Tb2       1.0  0.6835079789161682  0.7020910382270813  0.7963640093803406  1.0000
  Tb  Tb3       1.0  0.18470638990402222  0.7022746801376343  0.2972467541694641  1.0000
  Te  Te2       1.0  0.18461443483829498  0.9524534344673157  0.6327184438705444  1.0000
  Te  Te3       1.0  0.6838708519935608  0.451013445854187  0.4650753438472748  1.0000
  Te  Te4       1.0  0.6845375895500183  0.9511671066284179  0.13225293159484863  1.0000
  Tb  Tb4       1.0  0.18202760815620422  0.2002761960029602  0.2951645851135254  1.0000
