# generated using pymatgen
data_Te3MoWSeS2
_symmetry_space_group_name_H-M   'P 1'
_cell_length_a   3.30203869
_cell_length_b   3.30331634
_cell_length_c   36.36746990
_cell_angle_alpha   88.76389442
_cell_angle_beta   98.89795299
_cell_angle_gamma   120.01598653
_symmetry_Int_Tables_number   1
_chemical_formula_structural   Te3MoWSeS2
_chemical_formula_sum   'Te3 Mo1 W1 Se1 S2'
_cell_volume   338.62721094
_cell_formula_units_Z   1
loop_
 _symmetry_equiv_pos_site_id
 _symmetry_equiv_pos_as_xyz
  1  'x, y, z'
loop_
 _atom_site_type_symbol
 _atom_site_label
 _atom_site_symmetry_multiplicity
 _atom_site_fract_x
 _atom_site_fract_y
 _atom_site_fract_z
 _atom_site_occupancy
  Te  Te0  1  0.52546792  0.36322739  0.80934464  1
  Te  Te1  1  0.35481080  0.29726945  0.72477444  1
  Te  Te2  1  0.23822752  0.16252808  0.01585160  1
  Mo  Mo3  1  0.45661477  0.78494171  0.96193130  1
  W  W4  1  0.10010541  0.21119923  0.56062157  1
  Se  Se5  1  0.33351417  0.83860388  0.51346998  1
  S  S6  1  0.03514813  0.08427821  0.92028310  1
  S  S7  1  0.52260103  0.91239687  0.60289538  1
