data_image0
_chemical_formula_structural       TeMo2SeTe2SeTeW2Se
_chemical_formula_sum              "Te4 Mo2 Se3 W2"
_cell_length_a       3.430315444275722
_cell_length_b       3.425327536222125
_cell_length_c       28.47171974182129
_cell_angle_alpha    89.97876744666976
_cell_angle_beta     93.48317363258703
_cell_angle_gamma    120.10516123490761

_space_group_name_H-M_alt    "P 1"
_space_group_IT_number       1

loop_
  _space_group_symop_operation_xyz
  'x, y, z'

loop_
  _atom_site_type_symbol
  _atom_site_label
  _atom_site_symmetry_multiplicity
  _atom_site_fract_x
  _atom_site_fract_y
  _atom_site_fract_z
  _atom_site_occupancy
  Te  Te1       1.0  0.3275325894355774  0.47340646386146545  0.5206010341644287  1.0000
  Mo  Mo1       1.0  0.8763579726219178  0.24864934384822843  0.8448725938796997  1.0000
  Mo  Mo2       1.0  0.7148020863533021  0.6622878909111023  0.11007761210203171  1.0000
  Se  Se1       1.0  0.5062615871429443  0.5599901080131531  0.7868624329566956  1.0000
  Te  Te2       1.0  0.09090469032526018  0.3518986999988556  0.17610964179039001  1.0000
  Te  Te3       1.0  0.005700761452317239  0.3085845410823822  0.04447071999311447  1.0000
  Se  Se2       1.0  0.5117647051811218  0.0649338960647583  0.3041655421257019  1.0000
  Te  Te4       1.0  0.7507852911949159  0.1757010817527771  0.6535292267799377  1.0000
  W   W1        1.0  0.22228756546974185  0.4207508265972137  0.36676907539367676  1.0000
  W   W2        1.0  0.6127736568450928  0.11709506064653395  0.44826072454452515  1.0000
  Se  Se3       1.0  0.5793906450271606  0.5997655391693115  0.9023303389549255  1.0000
