# generated using pymatgen
data_Te4Mo3W2Se3
_symmetry_space_group_name_H-M   'P 1'
_cell_length_a   3.30978615
_cell_length_b   3.30954105
_cell_length_c   39.26785826
_cell_angle_alpha   90.17847494
_cell_angle_beta   90.39281220
_cell_angle_gamma   120.01683174
_symmetry_Int_Tables_number   1
_chemical_formula_structural   Te4Mo3W2Se3
_chemical_formula_sum   'Te4 Mo3 W2 Se3'
_cell_volume   372.42536778
_cell_formula_units_Z   1
loop_
 _symmetry_equiv_pos_site_id
 _symmetry_equiv_pos_as_xyz
  1  'x, y, z'
loop_
 _atom_site_type_symbol
 _atom_site_label
 _atom_site_symmetry_multiplicity
 _atom_site_fract_x
 _atom_site_fract_y
 _atom_site_fract_z
 _atom_site_occupancy
  Te  Te0  1  0.47334684  0.81664764  0.82583446  1
  Te  Te1  1  0.52109442  0.85211703  0.14214339  1
  Te  Te2  1  0.83531455  0.50506534  0.03270460  1
  Te  Te3  1  0.15404997  0.16085641  0.92902519  1
  Mo  Mo4  1  0.53234445  0.86140031  0.24485066  1
  Mo  Mo5  1  0.49568077  0.83332034  0.98482623  1
  Mo  Mo6  1  0.86037002  0.52425215  0.19107912  1
  W  W7  1  0.45375000  0.80827167  0.68391997  1
  W  W8  1  0.81301833  0.48850544  0.87438458  1
  Se  Se9  1  0.79302176  0.47930085  0.72670559  1
  Se  Se10  1  0.78117431  0.47085491  0.64113423  1
  Se  Se11  1  0.87120886  0.53249684  0.28786499  1
