data_image0
_chemical_formula_structural       Te3MoTe3WTe
_chemical_formula_sum              "Te7 Mo1 W1"
_cell_length_a       3.5805445915441516
_cell_length_b       3.5841853027664294
_cell_length_c       31.191410064697266
_cell_angle_alpha    90.70056820123905
_cell_angle_beta     89.00697490037501
_cell_angle_gamma    119.98895425137223

_space_group_name_H-M_alt    "P 1"
_space_group_IT_number       1

loop_
  _space_group_symop_operation_xyz
  'x, y, z'

loop_
  _atom_site_type_symbol
  _atom_site_label
  _atom_site_symmetry_multiplicity
  _atom_site_fract_x
  _atom_site_fract_y
  _atom_site_fract_z
  _atom_site_occupancy
  Te  Te1       1.0  0.645636260509491  0.882496178150177  0.8923512697219849  1.0000
  Te  Te2       1.0  0.6927022933959961  0.8732893466949463  0.48537072539329523  1.0000
  Te  Te3       1.0  0.331275075674057  0.21891345083713531  0.700468897819519  1.0000
  Mo  Mo1       1.0  0.35213685035705566  0.20809628069400787  0.5445812344551086  1.0000
  Te  Te4       1.0  0.6787076592445374  0.8808839321136475  0.6021591424942017  1.0000
  Te  Te5       1.0  0.3160421848297119  0.22276116907596588  0.997050940990448  1.0000
  Te  Te6       1.0  0.6578565239906311  0.8866519927978516  0.7710180878639221  1.0000
  W   W1        1.0  0.6471067667007446  0.8930760622024535  0.055269960314035416  1.0000
  Te  Te7       1.0  0.3132965862751007  0.2276410013437271  0.11164014786481857  1.0000
