# generated using pymatgen
data_TeMo2W2Se4S3
_symmetry_space_group_name_H-M   'P 1'
_cell_length_a   3.32823945
_cell_length_b   3.33882867
_cell_length_c   46.76240048
_cell_angle_alpha   92.68094661
_cell_angle_beta   89.62820518
_cell_angle_gamma   119.85853178
_symmetry_Int_Tables_number   1
_chemical_formula_structural   TeMo2W2Se4S3
_chemical_formula_sum   'Te1 Mo2 W2 Se4 S3'
_cell_volume   450.08672170
_cell_formula_units_Z   1
loop_
 _symmetry_equiv_pos_site_id
 _symmetry_equiv_pos_as_xyz
  1  'x, y, z'
loop_
 _atom_site_type_symbol
 _atom_site_label
 _atom_site_symmetry_multiplicity
 _atom_site_fract_x
 _atom_site_fract_y
 _atom_site_fract_z
 _atom_site_occupancy
  Te  Te0  1  0.43970918  0.19700010  0.74472476  1
  Mo  Mo1  1  0.40025458  0.11204379  0.62132071  1
  Mo  Mo2  1  0.02602560  0.35529768  0.47547570  1
  W  W3  1  0.00497118  0.29908839  0.41046793  1
  W  W4  1  0.76042776  0.82913694  0.70459282  1
  Se  Se5  1  0.35473019  -0.06921980  0.93923012  1
  Se  Se6  1  0.05587608  0.41866301  0.58650568  1
  Se  Se7  1  0.08329522  0.47702052  0.66200349  1
  Se  Se8  1  0.37053254  0.05147603  0.51183820  1
  S  S9  1  0.32824881  0.93876696  0.37846019  1
  S  S10  1  0.34862016  -0.00652508  0.44354141  1
  S  S11  1  0.84279347  0.90115320  0.90753477  1
