data_image0
_chemical_formula_structural       ZnTi2Al
_chemical_formula_sum              "Zn1 Ti2 Al1"
_cell_length_a       2.801149266835909
_cell_length_b       2.7994413651526258
_cell_length_c       7.970400333404541
_cell_angle_alpha    90.08884277016328
_cell_angle_beta     90.37717923445288
_cell_angle_gamma    90.49167366668095

_space_group_name_H-M_alt    "P 1"
_space_group_IT_number       1

loop_
  _space_group_symop_operation_xyz
  'x, y, z'

loop_
  _atom_site_type_symbol
  _atom_site_label
  _atom_site_symmetry_multiplicity
  _atom_site_fract_x
  _atom_site_fract_y
  _atom_site_fract_z
  _atom_site_occupancy
  Zn  Zn1       1.0  0.11499058455228806  0.5151758790016174  0.968367338180542  1.0000
  Ti  Ti1       1.0  0.6144956946372986  0.01220324821770191  0.7202353477478027  1.0000
  Ti  Ti2       1.0  0.6140553951263428  0.012421736493706703  0.21704576909542084  1.0000
  Al  Al1       1.0  0.11385373771190643  0.5089309811592102  0.4675253927707672  1.0000
