# generated using pymatgen
data_Ti2Nb2Al9Ni5
_symmetry_space_group_name_H-M   'P 1'
_cell_length_a   3.94098801
_cell_length_b   6.83560659
_cell_length_c   9.78652238
_cell_angle_alpha   83.48672415
_cell_angle_beta   89.98393307
_cell_angle_gamma   89.98568528
_symmetry_Int_Tables_number   1
_chemical_formula_structural   Ti2Nb2Al9Ni5
_chemical_formula_sum   'Ti2 Nb2 Al9 Ni5'
_cell_volume   261.93790090
_cell_formula_units_Z   1
loop_
 _symmetry_equiv_pos_site_id
 _symmetry_equiv_pos_as_xyz
  1  'x, y, z'
loop_
 _atom_site_type_symbol
 _atom_site_label
 _atom_site_symmetry_multiplicity
 _atom_site_fract_x
 _atom_site_fract_y
 _atom_site_fract_z
 _atom_site_occupancy
  Ti  Ti0  1  0.61275920  0.13039120  0.09357291  1
  Ti  Ti1  1  0.61280115  0.18836381  0.46778588  1
  Nb  Nb2  1  0.61279678  0.51713630  0.25565627  1
  Nb  Nb3  1  0.11280085  0.65018342  0.75118348  1
  Al  Al4  1  0.11279893  0.19670903  0.27726960  1
  Al  Al5  1  0.61272076  0.37581215  0.69467564  1
  Al  Al6  1  0.61270402  0.75717974  0.98902544  1
  Al  Al7  1  0.11286083  0.83257878  0.17841949  1
  Al  Al8  1  0.11268515  0.49129685  0.47636214  1
  Al  Al9  1  0.11274177  0.48533824  0.06180712  1
  Al  Al10  1  0.11287593  0.24856503  0.87672102  1
  Al  Al11  1  0.11271610  0.89081669  0.48626723  1
  Al  Al12  1  0.61272492  0.95806472  0.72999022  1
  Ni  Ni13  1  0.61269477  0.91375365  0.31694214  1
  Ni  Ni14  1  0.11264616  0.16647206  0.64171213  1
  Ni  Ni15  1  0.11265333  0.91452412  0.90643143  1
  Ni  Ni16  1  0.61267996  0.43267279  0.93192157  1
  Ni  Ni17  1  0.61274714  0.68775950  0.55081879  1
