data_image0
_chemical_formula_structural       AlTi2C3AlTi
_chemical_formula_sum              "Al2 Ti3 C3"
_cell_length_a       2.898570574927204
_cell_length_b       2.9009349754001055
_cell_length_c       10.598451614379883
_cell_angle_alpha    89.99039242837539
_cell_angle_beta     90.18613881132225
_cell_angle_gamma    89.98229182394327

_space_group_name_H-M_alt    "P 1"
_space_group_IT_number       1

loop_
  _space_group_symop_operation_xyz
  'x, y, z'

loop_
  _atom_site_type_symbol
  _atom_site_label
  _atom_site_symmetry_multiplicity
  _atom_site_fract_x
  _atom_site_fract_y
  _atom_site_fract_z
  _atom_site_occupancy
  Al  Al1       1.0  0.06354381144046783  0.6871127486228943  0.5708316564559937  1.0000
  Ti  Ti1       1.0  0.5631755590438843  0.1857780814170837  0.7650666236877441  1.0000
  Ti  Ti2       1.0  0.5644625425338745  0.18305417895317075  0.16273987293243408  1.0000
  C   C1        1.0  0.063205286860466  0.687354326248169  0.7633296251296997  1.0000
  C   C2        1.0  0.5641413331031799  0.18360738456249237  0.9715659618377686  1.0000
  C   C3        1.0  0.06184091046452522  0.6856035590171813  0.2767961323261261  1.0000
  Al  Al2       1.0  0.06443751603364944  0.6848582029342651  0.9579316973686218  1.0000
  Ti  Ti3       1.0  0.55680912733078  0.186639130115509  0.3890199661254883  1.0000
