# generated using pymatgen
data_Ti3Bi2PbO8
_symmetry_space_group_name_H-M   'P 1'
_cell_length_a   5.29011245
_cell_length_b   5.32749218
_cell_length_c   8.21023754
_cell_angle_alpha   92.63705507
_cell_angle_beta   112.61721479
_cell_angle_gamma   89.80308735
_symmetry_Int_Tables_number   1
_chemical_formula_structural   Ti3Bi2PbO8
_chemical_formula_sum   'Ti3 Bi2 Pb1 O8'
_cell_volume   213.34262915
_cell_formula_units_Z   1
loop_
 _symmetry_equiv_pos_site_id
 _symmetry_equiv_pos_as_xyz
  1  'x, y, z'
loop_
 _atom_site_type_symbol
 _atom_site_label
 _atom_site_symmetry_multiplicity
 _atom_site_fract_x
 _atom_site_fract_y
 _atom_site_fract_z
 _atom_site_occupancy
  Ti  Ti0  1  0.16889533  0.01847135  0.07614907  1
  Ti  Ti1  1  0.53501451  0.06546053  0.81387801  1
  Ti  Ti2  1  0.66348935  0.53171824  0.06019961  1
  Bi  Bi3  1  0.81193669  0.00210230  0.50643025  1
  Bi  Bi4  1  0.00632363  0.49918796  0.76111844  1
  Pb  Pb5  1  0.33187583  0.53658616  0.42581421  1
  O  O6  1  0.30275553  0.07283281  0.30670674  1
  O  O7  1  0.41741380  0.37258799  0.70217968  1
  O  O8  1  0.80722662  0.82027758  0.97324513  1
  O  O9  1  0.34085093  0.71946724  0.03756489  1
  O  O10  1  0.26303568  0.86627967  0.65857930  1
  O  O11  1  0.41055842  0.21130452  -0.00578579  1
  O  O12  1  0.89720224  0.29685083  0.97637635  1
  O  O13  1  0.84284247  0.53211234  0.28537121  1
