# generated using pymatgen
data_Ti4B3
_symmetry_space_group_name_H-M   'P 1'
_cell_length_a   3.12569780
_cell_length_b   4.52152065
_cell_length_c   6.03392038
_cell_angle_alpha   97.39795340
_cell_angle_beta   90.00633639
_cell_angle_gamma   89.99789584
_symmetry_Int_Tables_number   1
_chemical_formula_structural   Ti4B3
_chemical_formula_sum   'Ti4 B3'
_cell_volume   84.56697122
_cell_formula_units_Z   1
loop_
 _symmetry_equiv_pos_site_id
 _symmetry_equiv_pos_as_xyz
  1  'x, y, z'
loop_
 _atom_site_type_symbol
 _atom_site_label
 _atom_site_symmetry_multiplicity
 _atom_site_fract_x
 _atom_site_fract_y
 _atom_site_fract_z
 _atom_site_occupancy
  Ti  Ti0  1  0.47200593  0.82292499  0.02345611  1
  Ti  Ti1  1  0.97196470  0.18591155  0.68967008  1
  Ti  Ti2  1  0.97176155  0.36106026  0.17313387  1
  Ti  Ti3  1  0.47194140  0.65171870  0.51420604  1
  B  B4  1  0.47179181  0.11883289  0.38820838  1
  B  B5  1  0.97205425  0.69435096  0.77908763  1
  B  B6  1  0.97181619  0.91403896  0.32486288  1
