# generated using pymatgen
data_TiAl4V5Cr2
_symmetry_space_group_name_H-M   'P 1'
_cell_length_a   4.29242450
_cell_length_b   5.04688847
_cell_length_c   7.92586687
_cell_angle_alpha   100.92743760
_cell_angle_beta   90.02271033
_cell_angle_gamma   90.00440475
_symmetry_Int_Tables_number   1
_chemical_formula_structural   TiAl4V5Cr2
_chemical_formula_sum   'Ti1 Al4 V5 Cr2'
_cell_volume   168.58783474
_cell_formula_units_Z   1
loop_
 _symmetry_equiv_pos_site_id
 _symmetry_equiv_pos_as_xyz
  1  'x, y, z'
loop_
 _atom_site_type_symbol
 _atom_site_label
 _atom_site_symmetry_multiplicity
 _atom_site_fract_x
 _atom_site_fract_y
 _atom_site_fract_z
 _atom_site_occupancy
  Ti  Ti0  1  0.60311419  0.74360281  0.10233918  1
  Al  Al1  1  0.10301196  0.00994835  0.68310127  1
  Al  Al2  1  0.10290788  0.53101841  0.87402412  1
  Al  Al3  1  0.60299878  0.28156001  0.58710687  1
  Al  Al4  1  0.60317566  0.26427848  0.25290454  1
  V  V5  1  0.60298285  0.23883871  0.91700422  1
  V  V6  1  0.60290912  0.76629417  0.77031354  1
  V  V7  1  0.10315001  0.00189640  0.34533010  1
  V  V8  1  0.10299836  0.05690351  0.02700093  1
  V  V9  1  0.60317850  0.76024295  0.44793686  1
  Cr  Cr10  1  0.10316209  0.53253086  0.21515664  1
  Cr  Cr11  1  0.10304827  0.52048081  0.49423862  1
