# generated using pymatgen
data_TiNbB4
_symmetry_space_group_name_H-M   'P 1'
_cell_length_a   3.08391074
_cell_length_b   3.27465449
_cell_length_c   5.33780642
_cell_angle_alpha   90.01155075
_cell_angle_beta   90.03680627
_cell_angle_gamma   89.99991061
_symmetry_Int_Tables_number   1
_chemical_formula_structural   TiNbB4
_chemical_formula_sum   'Ti1 Nb1 B4'
_cell_volume   53.90511843
_cell_formula_units_Z   1
loop_
 _symmetry_equiv_pos_site_id
 _symmetry_equiv_pos_as_xyz
  1  'x, y, z'
loop_
 _atom_site_type_symbol
 _atom_site_label
 _atom_site_symmetry_multiplicity
 _atom_site_fract_x
 _atom_site_fract_y
 _atom_site_fract_z
 _atom_site_occupancy
  Ti  Ti0  1  0.40724475  0.74995919  0.23295787  1
  Nb  Nb1  1  0.90730334  0.75008957  0.73293988  1
  B  B2  1  0.90745139  0.24997172  0.07041115  1
  B  B3  1  0.40713351  0.25040847  0.56157287  1
  B  B4  1  0.90711581  0.24971263  0.39547342  1
  B  B5  1  0.40736535  0.24995006  0.90431603  1
