data_image0
_chemical_formula_structural       S3TiSV
_chemical_formula_sum              "S4 Ti1 V1"
_cell_length_a       3.2252292234443907
_cell_length_b       3.2342363391219275
_cell_length_c       13.625204086303711
_cell_angle_alpha    89.8347597366788
_cell_angle_beta     83.06956694502911
_cell_angle_gamma    59.91921398074268

_space_group_name_H-M_alt    "P 1"
_space_group_IT_number       1

loop_
  _space_group_symop_operation_xyz
  'x, y, z'

loop_
  _atom_site_type_symbol
  _atom_site_label
  _atom_site_symmetry_multiplicity
  _atom_site_fract_x
  _atom_site_fract_y
  _atom_site_fract_z
  _atom_site_occupancy
  S   S1        1.0  0.8037769198417664  0.6401401162147522  0.07217081636190414  1.0000
  S   S2        1.0  0.47109192609786976  0.8115773797035217  0.569159746170044  1.0000
  S   S3        1.0  0.3171664774417876  0.8864923715591431  0.800775110721588  1.0000
  Ti  Ti1       1.0  0.060112409293651574  0.012517383322119713  0.18591505289077756  1.0000
  S   S4        1.0  0.3174043297767639  0.3855433762073517  0.29802653193473816  1.0000
  V   V1        1.0  0.06069462746381759  0.5160348415374756  0.682927966117859  1.0000
