data_image0
_chemical_formula_structural       ClTlClTl2Cl2I
_chemical_formula_sum              "Cl4 Tl3 I1"
_cell_length_a       4.346114775058374
_cell_length_b       4.322282298325517
_cell_length_c       17.651905059814453
_cell_angle_alpha    97.53700664126882
_cell_angle_beta     82.85846620768473
_cell_angle_gamma    120.29408045196382

_space_group_name_H-M_alt    "P 1"
_space_group_IT_number       1

loop_
  _space_group_symop_operation_xyz
  'x, y, z'

loop_
  _atom_site_type_symbol
  _atom_site_label
  _atom_site_symmetry_multiplicity
  _atom_site_fract_x
  _atom_site_fract_y
  _atom_site_fract_z
  _atom_site_occupancy
  Cl  Cl1       1.0  0.05873692408204081  0.3972522616386414  0.358143150806427  1.0000
  Tl  Tl1       1.0  0.16457012295722964  0.2833371460437775  0.03838237375020981  1.0000
  Cl  Cl2       1.0  0.8607820868492126  0.5846197605133057  0.9433194398880005  1.0000
  Tl  Tl2       1.0  0.7590039968490602  0.6994275450706483  0.2639457583427429  1.0000
  Tl  Tl3       1.0  0.9571131467819214  0.487716019153595  0.6420721411705017  1.0000
  Cl  Cl3       1.0  0.3217516243457795  0.12764744460582736  0.5536162853240967  1.0000
  Cl  Cl4       1.0  0.4607613980770112  0.9915351867675782  0.1528903692960739  1.0000
  I   I1        1.0  0.5883542895317078  0.8547533154487611  0.749022901058197  1.0000
