# generated using pymatgen
data_Tl4ClF3
_symmetry_space_group_name_H-M   'P 1'
_cell_length_a   5.20918048
_cell_length_b   4.17610926
_cell_length_c   10.15632657
_cell_angle_alpha   101.48672232
_cell_angle_beta   91.15340829
_cell_angle_gamma   90.08256990
_symmetry_Int_Tables_number   1
_chemical_formula_structural   Tl4ClF3
_chemical_formula_sum   'Tl4 Cl1 F3'
_cell_volume   216.46932461
_cell_formula_units_Z   1
loop_
 _symmetry_equiv_pos_site_id
 _symmetry_equiv_pos_as_xyz
  1  'x, y, z'
loop_
 _atom_site_type_symbol
 _atom_site_label
 _atom_site_symmetry_multiplicity
 _atom_site_fract_x
 _atom_site_fract_y
 _atom_site_fract_z
 _atom_site_occupancy
  Tl  Tl0  1  0.69538636  0.63165965  0.09938518  1
  Tl  Tl1  1  0.19575074  0.48457611  0.80062843  1
  Tl  Tl2  1  0.19156540  0.21694434  0.27871329  1
  Tl  Tl3  1  0.69761593  0.82700784  0.51030239  1
  Cl  Cl4  1  0.67812683  0.01738767  0.86240403  1
  F  F5  1  0.19860116  0.79346258  0.43608879  1
  F  F6  1  0.68925834  0.24864484  0.35124656  1
  F  F7  1  0.19571453  0.60152408  0.03881252  1
