# generated using pymatgen
data_TlCl2
_symmetry_space_group_name_H-M   'P 1'
_cell_length_a   4.56755064
_cell_length_b   4.57129963
_cell_length_c   8.90874694
_cell_angle_alpha   89.98010668
_cell_angle_beta   89.96082302
_cell_angle_gamma   72.51908683
_symmetry_Int_Tables_number   1
_chemical_formula_structural   TlCl2
_chemical_formula_sum   'Tl2 Cl4'
_cell_volume   177.42085499
_cell_formula_units_Z   2
loop_
 _symmetry_equiv_pos_site_id
 _symmetry_equiv_pos_as_xyz
  1  'x, y, z'
loop_
 _atom_site_type_symbol
 _atom_site_label
 _atom_site_symmetry_multiplicity
 _atom_site_fract_x
 _atom_site_fract_y
 _atom_site_fract_z
 _atom_site_occupancy
  Tl  Tl0  1  0.97172113  0.90720739  0.92241008  1
  Tl  Tl1  1  0.47192073  0.40723416  0.43915662  1
  Cl  Cl2  1  0.47197273  0.90713399  0.18090948  1
  Cl  Cl3  1  0.47189428  0.40699577  0.83409021  1
  Cl  Cl4  1  0.97208305  0.40694814  0.18061369  1
  Cl  Cl5  1  0.97174160  0.90741673  0.52760158  1
