data_image0
_chemical_formula_structural       SPVSVSTlSV
_chemical_formula_sum              "S4 P1 V3 Tl1"
_cell_length_a       3.3584933871613263
_cell_length_b       3.3667304106365497
_cell_length_c       17.233890533447266
_cell_angle_alpha    84.23835558905867
_cell_angle_beta     95.85189653872277
_cell_angle_gamma    120.5718267170445

_space_group_name_H-M_alt    "P 1"
_space_group_IT_number       1

loop_
  _space_group_symop_operation_xyz
  'x, y, z'

loop_
  _atom_site_type_symbol
  _atom_site_label
  _atom_site_symmetry_multiplicity
  _atom_site_fract_x
  _atom_site_fract_y
  _atom_site_fract_z
  _atom_site_occupancy
  S   S1        1.0  0.4284672141075134  0.5621375441551208  0.15270863473415375  1.0000
  P   P1        1.0  0.5833051204681396  0.40115672349929804  0.6348927021026611  1.0000
  V   V1        1.0  0.06867904961109161  0.9221275448799133  0.07315485179424286  1.0000
  S   S2        1.0  0.7068718671798706  0.28173917531967163  0.9877830743789673  1.0000
  V   V2        1.0  0.22275863587856293  0.7611598372459412  0.5570855736732483  1.0000
  S   S3        1.0  0.3048161566257477  0.6785274147987366  0.7955023646354675  1.0000
  Tl  Tl1       1.0  0.14903990924358368  0.8400828242301941  0.31961414217948914  1.0000
  S   S4        1.0  0.8640895485877991  0.12115418165922165  0.47487348318099976  1.0000
  V   V3        1.0  0.9422761797904968  0.04166688024997711  0.7137376666069031  1.0000
