data_image0
_chemical_formula_structural       AgTlAgZn
_chemical_formula_sum              "Ag2 Tl1 Zn1"
_cell_length_a       4.777896357797841
_cell_length_b       4.7794500466698375
_cell_length_c       4.776970863342285
_cell_angle_alpha    59.98625401480332
_cell_angle_beta     59.87059027630282
_cell_angle_gamma    59.77959862305818

_space_group_name_H-M_alt    "P 1"
_space_group_IT_number       1

loop_
  _space_group_symop_operation_xyz
  'x, y, z'

loop_
  _atom_site_type_symbol
  _atom_site_label
  _atom_site_symmetry_multiplicity
  _atom_site_fract_x
  _atom_site_fract_y
  _atom_site_fract_z
  _atom_site_occupancy
  Ag  Ag1       1.0  0.24043592810630804  0.7842328548431395  0.7172343134880067  1.0000
  Tl  Tl1       1.0  0.4911026060581207  0.034115105867385864  0.9672298431396484  1.0000
  Ag  Ag2       1.0  0.7407606840133667  0.28412893414497375  0.2171574980020523  1.0000
  Zn  Zn1       1.0  0.9910838603973389  0.5341928005218506  0.46695509552955633  1.0000
