# generated using pymatgen
data_Tm3Cd2In3Au
_symmetry_space_group_name_H-M   'P 1'
_cell_length_a   4.86585998
_cell_length_b   4.86443692
_cell_length_c   10.49768544
_cell_angle_alpha   89.99199500
_cell_angle_beta   89.98099440
_cell_angle_gamma   119.98293730
_symmetry_Int_Tables_number   1
_chemical_formula_structural   Tm3Cd2In3Au
_chemical_formula_sum   'Tm3 Cd2 In3 Au1'
_cell_volume   215.22413169
_cell_formula_units_Z   1
loop_
 _symmetry_equiv_pos_site_id
 _symmetry_equiv_pos_as_xyz
  1  'x, y, z'
loop_
 _atom_site_type_symbol
 _atom_site_label
 _atom_site_symmetry_multiplicity
 _atom_site_fract_x
 _atom_site_fract_y
 _atom_site_fract_z
 _atom_site_occupancy
  Tm  Tm0  1  0.47703363  0.78464866  0.55759149  1
  Tm  Tm1  1  0.47704287  0.78455927  0.21255764  1
  Tm  Tm2  1  0.47708353  0.78451473  0.87505600  1
  Cd  Cd3  1  0.81028705  0.45130182  0.07390442  1
  Cd  Cd4  1  0.14373070  0.11779155  0.35867057  1
  In  In5  1  0.81044820  0.45118647  0.38919544  1
  In  In6  1  0.14371305  0.11797293  0.72914399  1
  In  In7  1  0.14361261  0.11793929  0.03073242  1
  Au  Au8  1  0.81034306  0.45138383  0.67797647  1
