# generated using pymatgen
data_Tm3ReO8
_symmetry_space_group_name_H-M   'P 1'
_cell_length_a   5.98170971
_cell_length_b   4.98694360
_cell_length_c   5.98128817
_cell_angle_alpha   88.67006697
_cell_angle_beta   67.79914365
_cell_angle_gamma   88.68016714
_symmetry_Int_Tables_number   1
_chemical_formula_structural   Tm3ReO8
_chemical_formula_sum   'Tm3 Re1 O8'
_cell_volume   165.13288821
_cell_formula_units_Z   1
loop_
 _symmetry_equiv_pos_site_id
 _symmetry_equiv_pos_as_xyz
  1  'x, y, z'
loop_
 _atom_site_type_symbol
 _atom_site_label
 _atom_site_symmetry_multiplicity
 _atom_site_fract_x
 _atom_site_fract_y
 _atom_site_fract_z
 _atom_site_occupancy
  Tm  Tm0  1  0.05088632  0.01389773  0.00039860  1
  Tm  Tm1  1  0.55074518  0.01395336  0.50036290  1
  Tm  Tm2  1  0.55073940  0.51369887  0.00027093  1
  Re  Re3  1  0.05084508  0.51389641  0.50046606  1
  O  O4  1  0.69520136  0.18817425  0.14449346  1
  O  O5  1  0.75266961  0.33195499  0.61834937  1
  O  O6  1  0.40664729  0.83970534  0.85620889  1
  O  O7  1  0.93281351  0.69575904  0.79856305  1
  O  O8  1  0.19369614  0.24520161  0.64334819  1
  O  O9  1  0.90792992  0.78273330  0.35764801  1
  O  O10  1  0.16889243  0.33189440  0.20233940  1
  O  O11  1  0.34895771  0.69586891  0.38239149  1
