data_image0
_chemical_formula_structural       Tm2Sn2AgSnAgSn
_chemical_formula_sum              "Tm2 Sn4 Ag2"
_cell_length_a       4.539693740174268
_cell_length_b       4.541553923298973
_cell_length_c       9.923476219177246
_cell_angle_alpha    90.0361273735111
_cell_angle_beta     62.86203325682041
_cell_angle_gamma    89.98996895685588

_space_group_name_H-M_alt    "P 1"
_space_group_IT_number       1

loop_
  _space_group_symop_operation_xyz
  'x, y, z'

loop_
  _atom_site_type_symbol
  _atom_site_label
  _atom_site_symmetry_multiplicity
  _atom_site_fract_x
  _atom_site_fract_y
  _atom_site_fract_z
  _atom_site_occupancy
  Tm  Tm1       1.0  0.07371870428323746  0.24100486934185028  0.4690916836261749  1.0000
  Tm  Tm2       1.0  0.07852118462324142  0.7400339841842651  0.9668498635292053  1.0000
  Sn  Sn1       1.0  0.8249349594116211  0.24084818363189694  0.2182449996471405  1.0000
  Sn  Sn2       1.0  0.3224451541900635  0.24187208712100983  0.7197721600532532  1.0000
  Ag  Ag1       1.0  0.571864902973175  0.24089068174362185  0.9714147448539734  1.0000
  Sn  Sn3       1.0  0.8260515928268433  0.7417724132537842  0.7178191542625427  1.0000
  Ag  Ag2       1.0  0.5777681469917297  0.7419701814651489  0.46597400307655334  1.0000
  Sn  Sn4       1.0  0.32695239782333374  0.7408727407455444  0.21670550107955927  1.0000
