# generated using pymatgen
data_TmH9
_symmetry_space_group_name_H-M   'P 1'
_cell_length_a   3.49396931
_cell_length_b   3.48486117
_cell_length_c   10.15847412
_cell_angle_alpha   87.04839951
_cell_angle_beta   88.13986022
_cell_angle_gamma   60.57032598
_symmetry_Int_Tables_number   1
_chemical_formula_structural   TmH9
_chemical_formula_sum   'Tm1 H9'
_cell_volume   107.58203338
_cell_formula_units_Z   1
loop_
 _symmetry_equiv_pos_site_id
 _symmetry_equiv_pos_as_xyz
  1  'x, y, z'
loop_
 _atom_site_type_symbol
 _atom_site_label
 _atom_site_symmetry_multiplicity
 _atom_site_fract_x
 _atom_site_fract_y
 _atom_site_fract_z
 _atom_site_occupancy
  Tm  Tm0  1  0.48503287  -0.02534443  0.16789928  1
  H  H1  1  0.14828551  0.62696262  0.27792039  1
  H  H2  1  0.81974328  0.30994296  0.16385750  1
  H  H3  1  0.07000647  0.77125843  0.74231552  1
  H  H4  1  0.41779581  0.03591084  0.92443672  1
  H  H5  1  0.66607180  -0.08149335  0.93536196  1
  H  H6  1  0.15122872  0.65712981  0.06628427  1
  H  H7  1  0.25989549  0.60626412  0.70299356  1
  H  H8  1  0.60815023  0.03155719  0.52798603  1
  H  H9  1  0.46776576  0.22714379  0.48331810  1
