data_image0
_chemical_formula_structural       SAgVS2CuS3V2SAg2
_chemical_formula_sum              "S7 Ag3 V3 Cu1"
_cell_length_a       3.5260837358091823
_cell_length_b       7.2934949424288735
_cell_length_c       10.209447860717773
_cell_angle_alpha    78.4642156319978
_cell_angle_beta     89.92974717710395
_cell_angle_gamma    89.66145731613426

_space_group_name_H-M_alt    "P 1"
_space_group_IT_number       1

loop_
  _space_group_symop_operation_xyz
  'x, y, z'

loop_
  _atom_site_type_symbol
  _atom_site_label
  _atom_site_symmetry_multiplicity
  _atom_site_fract_x
  _atom_site_fract_y
  _atom_site_fract_z
  _atom_site_occupancy
  S   S1        1.0  0.5894865393638611  0.570016622543335  0.16962197422981262  1.0000
  Ag  Ag1       1.0  0.5862194895744324  0.6254414916038513  0.7590238451957703  1.0000
  V   V1        1.0  0.5900202393531799  0.19188925623893735  0.9538192749023439  1.0000
  S   S2        1.0  0.09275732189416887  0.9746583700180054  0.8964767456054689  1.0000
  S   S3        1.0  0.08935663104057313  0.31699448823928833  0.4174711108207703  1.0000
  Cu  Cu1       1.0  0.5997278094291688  0.7914909124374389  0.9842233061790467  1.0000
  S   S4        1.0  0.5886852145195007  0.2704098224639892  0.699068009853363  1.0000
  S   S5        1.0  0.5902037024497986  0.10792729258537292  0.178584024310112  1.0000
  S   S6        1.0  0.0865047574043274  0.8022007346153259  0.5914372801780701  1.0000
  V   V2        1.0  0.08684575557708742  0.10476046055555344  0.6326159834861755  1.0000
  V   V3        1.0  0.09082452952861787  0.34172710776329035  0.16367569565773013  1.0000
  S   S7        1.0  0.08685288578271867  0.42417481541633606  0.9354586005210878  1.0000
  Ag  Ag2       1.0  0.5886622071266174  0.0058861421421170235  0.42730695009231573  1.0000
  Ag  Ag3       1.0  0.5867186188697815  0.5786866545677185  0.4456263184547425  1.0000
