# generated using pymatgen
data_VRh3
_symmetry_space_group_name_H-M   'P 1'
_cell_length_a   3.80220061
_cell_length_b   3.80121076
_cell_length_c   3.80393005
_cell_angle_alpha   89.94565816
_cell_angle_beta   89.93446634
_cell_angle_gamma   89.94179195
_symmetry_Int_Tables_number   1
_chemical_formula_structural   VRh3
_chemical_formula_sum   'V1 Rh3'
_cell_volume   54.97798217
_cell_formula_units_Z   1
loop_
 _symmetry_equiv_pos_site_id
 _symmetry_equiv_pos_as_xyz
  1  'x, y, z'
loop_
 _atom_site_type_symbol
 _atom_site_label
 _atom_site_symmetry_multiplicity
 _atom_site_fract_x
 _atom_site_fract_y
 _atom_site_fract_z
 _atom_site_occupancy
  V  V0  1  0.23618376  0.89468720  0.49697873  1
  Rh  Rh1  1  0.73628248  0.89415584  0.99734187  1
  Rh  Rh2  1  0.73619203  0.39406943  0.49740502  1
  Rh  Rh3  1  0.23621707  0.39414566  0.99750050  1
