data_image0
_chemical_formula_structural       SeVSe3V
_chemical_formula_sum              "Se4 V2"
_cell_length_a       3.338124589879607
_cell_length_b       6.033323066521763
_cell_length_c       8.520980834960938
_cell_angle_alpha    125.64675351781153
_cell_angle_beta     101.13976037271765
_cell_angle_gamma    89.92052001288766

_space_group_name_H-M_alt    "P 1"
_space_group_IT_number       1

loop_
  _space_group_symop_operation_xyz
  'x, y, z'

loop_
  _atom_site_type_symbol
  _atom_site_label
  _atom_site_symmetry_multiplicity
  _atom_site_fract_x
  _atom_site_fract_y
  _atom_site_fract_z
  _atom_site_occupancy
  Se  Se1       1.0  0.9672068953514098  0.016777541488409046  0.25083619356155396  1.0000
  V   V1        1.0  0.8632706999778746  0.21710860729217532  0.04186882078647616  1.0000
  Se  Se2       1.0  0.4938512444496154  0.5553641319274903  0.3042323291301728  1.0000
  Se  Se3       1.0  0.7275612950325011  0.2848812937736511  0.7694569826126099  1.0000
  Se  Se4       1.0  0.2561333477497101  0.8256087303161621  0.8248546123504639  1.0000
  V   V2        1.0  0.35771536827087397  0.6240396499633789  0.03155826777219778  1.0000
