data_image0
_chemical_formula_structural       VZnOsRu
_chemical_formula_sum              "V1 Zn1 Os1 Ru1"
_cell_length_a       4.246500241677805
_cell_length_b       4.2459512391652074
_cell_length_c       4.244423866271973
_cell_angle_alpha    60.099504833690375
_cell_angle_beta     60.1148398906946
_cell_angle_gamma    59.88443416603687

_space_group_name_H-M_alt    "P 1"
_space_group_IT_number       1

loop_
  _space_group_symop_operation_xyz
  'x, y, z'

loop_
  _atom_site_type_symbol
  _atom_site_label
  _atom_site_symmetry_multiplicity
  _atom_site_fract_x
  _atom_site_fract_y
  _atom_site_fract_z
  _atom_site_occupancy
  V   V1        1.0  0.2847427725791931  0.5116893649101257  0.4222045838832855  1.0000
  Zn  Zn1       1.0  0.7845603227615356  0.012714177370071411  0.9224399328231812  1.0000
  Os  Os1       1.0  0.5342937707901001  0.7635822892189027  0.673287570476532  1.0000
  Ru  Ru1       1.0  0.034157827496528625  0.2632560133934021  0.1732434183359146  1.0000
