data_image0
_chemical_formula_structural       S2WS2WSWS
_chemical_formula_sum              "S6 W3"
_cell_length_a       3.2539064900796832
_cell_length_b       3.2603373399528883
_cell_length_c       28.629119873046875
_cell_angle_alpha    90.37052662183153
_cell_angle_beta     89.85449899929904
_cell_angle_gamma    119.6111888577165

_space_group_name_H-M_alt    "P 1"
_space_group_IT_number       1

loop_
  _space_group_symop_operation_xyz
  'x, y, z'

loop_
  _atom_site_type_symbol
  _atom_site_label
  _atom_site_symmetry_multiplicity
  _atom_site_fract_x
  _atom_site_fract_y
  _atom_site_fract_z
  _atom_site_occupancy
  S   S1        1.0  0.34187957644462585  0.2278042286634445  0.37960302829742426  1.0000
  S   S2        1.0  0.01822394877672196  0.5721856355667114  0.6228920817375183  1.0000
  W   W1        1.0  0.021910600364208156  0.5992164015769957  0.8145506381988524  1.0000
  S   S3        1.0  0.014040360227227202  0.5650507807731628  0.5119466781616211  1.0000
  S   S4        1.0  0.3558633327484131  0.2737693190574646  0.8685320019721984  1.0000
  W   W2        1.0  0.34974297881126404  0.23430769145488736  0.566697359085083  1.0000
  S   S5        1.0  0.35095924139022827  0.2566053867340088  0.758205473423004  1.0000
  W   W3        1.0  0.007848402485251439  0.5580522418022156  0.3227529525756836  1.0000
  S   S6        1.0  0.3377705216407776  0.2248915135860443  0.26905858516693115  1.0000
