data_image0
_chemical_formula_structural       Y2ClC
_chemical_formula_sum              "Y2 Cl1 C1"
_cell_length_a       3.605025596127714
_cell_length_b       3.608741571443772
_cell_length_c       7.293307304382324
_cell_angle_alpha    75.91544969320229
_cell_angle_beta     75.91245072971937
_cell_angle_gamma    60.14280227973243

_space_group_name_H-M_alt    "P 1"
_space_group_IT_number       1

loop_
  _space_group_symop_operation_xyz
  'x, y, z'

loop_
  _atom_site_type_symbol
  _atom_site_label
  _atom_site_symmetry_multiplicity
  _atom_site_fract_x
  _atom_site_fract_y
  _atom_site_fract_z
  _atom_site_occupancy
  Y   Y1        1.0  0.7303136587142944  0.5150951743125916  0.41463491320610046  1.0000
  Y   Y2        1.0  0.5228188633918762  0.3092103600502014  0.03709276393055916  1.0000
  Cl  Cl1       1.0  0.29859697818756104  0.08012335002422333  0.7196385264396667  1.0000
  C   C1        1.0  0.12606465816497803  0.9120046496391297  0.2269681841135025  1.0000
