# generated using pymatgen
data_Y2GaAg
_symmetry_space_group_name_H-M   'P 1'
_cell_length_a   5.12379925
_cell_length_b   5.12371832
_cell_length_c   5.12464630
_cell_angle_alpha   59.96338496
_cell_angle_beta   59.96510135
_cell_angle_gamma   59.96759033
_symmetry_Int_Tables_number   1
_chemical_formula_structural   Y2GaAg
_chemical_formula_sum   'Y2 Ga1 Ag1'
_cell_volume   95.05718417
_cell_formula_units_Z   1
loop_
 _symmetry_equiv_pos_site_id
 _symmetry_equiv_pos_as_xyz
  1  'x, y, z'
loop_
 _atom_site_type_symbol
 _atom_site_label
 _atom_site_symmetry_multiplicity
 _atom_site_fract_x
 _atom_site_fract_y
 _atom_site_fract_z
 _atom_site_occupancy
  Y  Y0  1  0.11405586  0.21510932  0.73838279  1
  Y  Y1  1  0.61402162  0.71508901  0.23879427  1
  Ga  Ga2  1  0.86414072  0.96470716  0.48838929  1
  Ag  Ag3  1  0.36428628  0.46480638  0.98890676  1
