data_image0
_chemical_formula_structural       NiYSi2NiSi2Ni3YNi2Si
_chemical_formula_sum              "Ni7 Y2 Si5"
_cell_length_a       3.905006265868565
_cell_length_b       3.9057428495102644
_cell_length_c       15.261778831481934
_cell_angle_alpha    89.93106539531982
_cell_angle_beta     89.83562718504285
_cell_angle_gamma    59.89617006114435

_space_group_name_H-M_alt    "P 1"
_space_group_IT_number       1

loop_
  _space_group_symop_operation_xyz
  'x, y, z'

loop_
  _atom_site_type_symbol
  _atom_site_label
  _atom_site_symmetry_multiplicity
  _atom_site_fract_x
  _atom_site_fract_y
  _atom_site_fract_z
  _atom_site_occupancy
  Ni  Ni1       1.0  0.34604805707931524  0.5717058181762694  0.029945090413093567  1.0000
  Y   Y1        1.0  0.3481572568416596  0.5716217160224913  0.8186444640159607  1.0000
  Si  Si1       1.0  0.017142271623015418  0.23791176080703733  0.6716638803482056  1.0000
  Si  Si2       1.0  0.6845254302024842  0.9030057787895203  0.5465750694274902  1.0000
  Ni  Ni2       1.0  0.6825240850448608  0.9057064056396484  0.6948437690734862  1.0000
  Si  Si3       1.0  0.012753126211464405  0.23799970746040341  0.9571429491043091  1.0000
  Si  Si4       1.0  0.6790761351585388  0.9045504331588745  0.09728500247001648  1.0000
  Ni  Ni3       1.0  0.6802621483802797  0.9045836329460143  0.9411398768424988  1.0000
  Ni  Ni4       1.0  0.6811172962188721  0.9040812849998473  0.39262548089027405  1.0000
  Ni  Ni5       1.0  0.01462902687489988  0.23719786107540128  0.5076122283935547  1.0000
  Y   Y2        1.0  0.34587040543556213  0.5705045461654663  0.23807552456855774  1.0000
  Ni  Ni6       1.0  0.012186470441520244  0.23882164061069486  0.11529553681612015  1.0000
  Ni  Ni7       1.0  0.34946945309638977  0.5722234249114989  0.6133301854133606  1.0000
  Si  Si5       1.0  0.01352483406662944  0.23684583604335782  0.3598284423351288  1.0000
