# generated using pymatgen
data_Y3Sn4Pt3
_symmetry_space_group_name_H-M   'P 1'
_cell_length_a   4.66881747
_cell_length_b   4.66869731
_cell_length_c   12.33451030
_cell_angle_alpha   89.97824577
_cell_angle_beta   89.98011824
_cell_angle_gamma   59.97665433
_symmetry_Int_Tables_number   1
_chemical_formula_structural   Y3Sn4Pt3
_chemical_formula_sum   'Y3 Sn4 Pt3'
_cell_volume   232.78388100
_cell_formula_units_Z   1
loop_
 _symmetry_equiv_pos_site_id
 _symmetry_equiv_pos_as_xyz
  1  'x, y, z'
loop_
 _atom_site_type_symbol
 _atom_site_label
 _atom_site_symmetry_multiplicity
 _atom_site_fract_x
 _atom_site_fract_y
 _atom_site_fract_z
 _atom_site_occupancy
  Y  Y0  1  0.04212051  0.32946793  0.21207833  1
  Y  Y1  1  0.70855702  0.99582414  0.45000147  1
  Y  Y2  1  0.70844853  0.99576811  0.74319039  1
  Sn  Sn3  1  0.70889920  0.99629470  0.08653555  1
  Sn  Sn4  1  0.37534777  0.66265511  0.33538300  1
  Sn  Sn5  1  0.04186653  0.32924137  0.91765269  1
  Sn  Sn6  1  0.04177167  0.32902222  0.58692262  1
  Pt  Pt7  1  0.37568225  0.66309497  0.04974477  1
  Pt  Pt8  1  0.37507816  0.66241873  0.82917353  1
  Pt  Pt9  1  0.37504938  0.66228201  0.59436765  1
