data_image0
_chemical_formula_structural       Y3Tl
_chemical_formula_sum              "Y3 Tl1"
_cell_length_a       5.4860966306112475
_cell_length_b       5.471434834394878
_cell_length_c       5.475053787231445
_cell_angle_alpha    59.877586758819
_cell_angle_beta     59.67085543207193
_cell_angle_gamma    59.6900205814963

_space_group_name_H-M_alt    "P 1"
_space_group_IT_number       1

loop_
  _space_group_symop_operation_xyz
  'x, y, z'

loop_
  _atom_site_type_symbol
  _atom_site_label
  _atom_site_symmetry_multiplicity
  _atom_site_fract_x
  _atom_site_fract_y
  _atom_site_fract_z
  _atom_site_occupancy
  Y   Y1        1.0  0.9925532341003418  0.09057389199733734  0.28444314002990717  1.0000
  Y   Y2        1.0  0.4926765263080597  0.5929011106491089  0.7857306599617004  1.0000
  Y   Y3        1.0  0.7425792217254639  0.8420355319976807  0.03497627377510071  1.0000
  Tl  Tl1       1.0  0.24253591895103455  0.3417527973651886  0.5354887843132019  1.0000
