# generated using pymatgen
data_YBi3PdO7
_symmetry_space_group_name_H-M   'P 1'
_cell_length_a   3.73860866
_cell_length_b   6.66642237
_cell_length_c   9.01103409
_cell_angle_alpha   106.26799497
_cell_angle_beta   78.01337898
_cell_angle_gamma   90.06904281
_symmetry_Int_Tables_number   1
_chemical_formula_structural   YBi3PdO7
_chemical_formula_sum   'Y1 Bi3 Pd1 O7'
_cell_volume   210.50217208
_cell_formula_units_Z   1
loop_
 _symmetry_equiv_pos_site_id
 _symmetry_equiv_pos_as_xyz
  1  'x, y, z'
loop_
 _atom_site_type_symbol
 _atom_site_label
 _atom_site_symmetry_multiplicity
 _atom_site_fract_x
 _atom_site_fract_y
 _atom_site_fract_z
 _atom_site_occupancy
  Y  Y0  1  0.36685303  0.10442185  0.98567376  1
  Bi  Bi1  1  0.10041783  0.97175151  0.51818638  1
  Bi  Bi2  1  0.68889928  0.36257068  0.34096397  1
  Bi  Bi3  1  0.80445507  0.73315044  0.10807538  1
  Pd  Pd4  1  0.51189803  0.71238333  0.69490277  1
  O  O5  1  0.39615777  0.73622654  0.92612459  1
  O  O6  1  0.10743762  0.30463092  0.50369742  1
  O  O7  1  0.27482252  0.40818002  0.17014385  1
  O  O8  1  0.62833127  0.70999449  0.46235405  1
  O  O9  1  0.23202010  0.89228115  0.25471120  1
  O  O10  1  0.49843569  0.02672372  0.72312193  1
  O  O11  1  0.81804944  0.05301159  0.08295429  1
