data_image0
_chemical_formula_structural       CuOCuOYO2CuO2CuO
_chemical_formula_sum              "Cu4 O7 Y1"
_cell_length_a       3.3236583782007836
_cell_length_b       5.9151818016405295
_cell_length_c       8.415258407592773
_cell_angle_alpha    80.6768768861569
_cell_angle_beta     90.17978675015878
_cell_angle_gamma    89.90487162635671

_space_group_name_H-M_alt    "P 1"
_space_group_IT_number       1

loop_
  _space_group_symop_operation_xyz
  'x, y, z'

loop_
  _atom_site_type_symbol
  _atom_site_label
  _atom_site_symmetry_multiplicity
  _atom_site_fract_x
  _atom_site_fract_y
  _atom_site_fract_z
  _atom_site_occupancy
  Cu  Cu1       1.0  0.09483817219734192  0.21727317571640015  0.5378071069717407  1.0000
  O   O1        1.0  0.09471505880355835  0.9557114839553833  0.44543096423149103  1.0000
  Cu  Cu2       1.0  0.09534252434968948  0.1264660358428955  0.2361677139997482  1.0000
  O   O2        1.0  0.09608770906925201  0.22424313426017758  0.02212878689169884  1.0000
  Y   Y1        1.0  0.594692051410675  0.6719380617141724  0.3855614960193634  1.0000
  O   O3        1.0  0.09877528250217438  0.1187698021531105  0.7513870596885681  1.0000
  O   O4        1.0  0.09565296769142151  0.831021785736084  0.1823764145374298  1.0000
  Cu  Cu3       1.0  0.0988011434674263  0.41000109910964966  0.8157125115394592  1.0000
  O   O5        1.0  0.09674062579870224  0.6761709451675415  0.8876218199729919  1.0000
  O   O6        1.0  0.09713160991668701  0.5122666954994202  0.5892624258995056  1.0000
  Cu  Cu4       1.0  0.09988405555486679  0.9367287755012512  0.9589673280715942  1.0000
  O   O7        1.0  0.09422232955694199  0.38655728101730347  0.32956159114837646  1.0000
