# generated using pymatgen
data_YPt3
_symmetry_space_group_name_H-M   'P 1'
_cell_length_a   4.12497587
_cell_length_b   4.11921247
_cell_length_c   5.82226953
_cell_angle_alpha   135.00861295
_cell_angle_beta   90.00376012
_cell_angle_gamma   89.99642120
_symmetry_Int_Tables_number   1
_chemical_formula_structural   YPt3
_chemical_formula_sum   'Y1 Pt3'
_cell_volume   69.94354168
_cell_formula_units_Z   1
loop_
 _symmetry_equiv_pos_site_id
 _symmetry_equiv_pos_as_xyz
  1  'x, y, z'
loop_
 _atom_site_type_symbol
 _atom_site_label
 _atom_site_symmetry_multiplicity
 _atom_site_fract_x
 _atom_site_fract_y
 _atom_site_fract_z
 _atom_site_occupancy
  Y  Y0  1  0.07514797  0.11969512  0.19979152  1
  Pt  Pt1  1  0.07517647  0.11978143  0.69973401  1
  Pt  Pt2  1  0.57527965  0.61965361  0.69972468  1
  Pt  Pt3  1  0.57508973  0.61981672  0.19984444  1
