# generated using pymatgen
data_YSb2S2IO2
_symmetry_space_group_name_H-M   'P 1'
_cell_length_a   4.34774543
_cell_length_b   4.45570662
_cell_length_c   9.80577407
_cell_angle_alpha   92.65512710
_cell_angle_beta   87.20035962
_cell_angle_gamma   90.53847421
_symmetry_Int_Tables_number   1
_chemical_formula_structural   YSb2S2IO2
_chemical_formula_sum   'Y1 Sb2 S2 I1 O2'
_cell_volume   189.52492098
_cell_formula_units_Z   1
loop_
 _symmetry_equiv_pos_site_id
 _symmetry_equiv_pos_as_xyz
  1  'x, y, z'
loop_
 _atom_site_type_symbol
 _atom_site_label
 _atom_site_symmetry_multiplicity
 _atom_site_fract_x
 _atom_site_fract_y
 _atom_site_fract_z
 _atom_site_occupancy
  Y  Y0  1  0.57468854  0.67382324  0.32116297  1
  Sb  Sb1  1  -0.01259843  0.25996041  0.53809022  1
  Sb  Sb2  1  0.08570358  0.15994231  0.98857209  1
  S  S3  1  0.08122754  0.67435209  0.11871343  1
  S  S4  1  0.56852268  0.16495230  0.12653748  1
  I  I5  1  0.60598938  0.63718446  0.73810197  1
  O  O6  1  0.62881277  0.16205972  0.42318384  1
  O  O7  1  0.07847589  0.60982341  0.42053175  1
