# generated using pymatgen
data_Zn2As5O13
_symmetry_space_group_name_H-M   'P 1'
_cell_length_a   5.14732647
_cell_length_b   7.69757634
_cell_length_c   10.96143811
_cell_angle_alpha   112.95903957
_cell_angle_beta   101.81957111
_cell_angle_gamma   76.10154282
_symmetry_Int_Tables_number   1
_chemical_formula_structural   Zn2As5O13
_chemical_formula_sum   'Zn2 As5 O13'
_cell_volume   385.18834465
_cell_formula_units_Z   1
loop_
 _symmetry_equiv_pos_site_id
 _symmetry_equiv_pos_as_xyz
  1  'x, y, z'
loop_
 _atom_site_type_symbol
 _atom_site_label
 _atom_site_symmetry_multiplicity
 _atom_site_fract_x
 _atom_site_fract_y
 _atom_site_fract_z
 _atom_site_occupancy
  Zn  Zn0  1  0.81379172  0.07153940  0.40589198  1
  Zn  Zn1  1  0.92702338  0.70803311  0.81879024  1
  As  As2  1  0.43310954  0.95179589  0.53974581  1
  As  As3  1  0.07893027  0.10645403  0.79648498  1
  As  As4  1  0.73254487  0.52733812  0.48794155  1
  As  As5  1  0.80006226  0.70616915  0.10119193  1
  As  As6  1  0.33932265  0.45647817  -0.00922426  1
  O  O7  1  0.08275325  0.91784251  0.83873330  1
  O  O8  1  0.70234892  0.85394710  0.24812505  1
  O  O9  1  0.63582722  0.31382956  0.38434088  1
  O  O10  1  0.67532738  0.48548791  0.06305801  1
  O  O11  1  0.76291633  0.54628877  0.65128467  1
  O  O12  1  0.75095438  -0.01304187  0.54588609  1
  O  O13  1  0.24460966  0.51314595  0.85393666  1
  O  O14  1  0.42704863  0.69944286  0.46066637  1
  O  O15  1  0.71828533  0.77677991  0.96997737  1
  O  O16  1  0.20324106  0.06887968  0.45167658  1
  O  O17  1  0.15482997  0.61451931  0.12748892  1
  O  O18  1  0.32077602  0.22578877  0.96469040  1
  O  O19  1  0.39122097  0.00738697  0.70503345  1
