# generated using pymatgen
data_Zn2H3ClO3
_symmetry_space_group_name_H-M   'P 1'
_cell_length_a   5.95532889
_cell_length_b   4.97189033
_cell_length_c   5.56289203
_cell_angle_alpha   85.53314590
_cell_angle_beta   113.62462999
_cell_angle_gamma   120.34886259
_symmetry_Int_Tables_number   1
_chemical_formula_structural   Zn2H3ClO3
_chemical_formula_sum   'Zn2 H3 Cl1 O3'
_cell_volume   128.60146062
_cell_formula_units_Z   1
loop_
 _symmetry_equiv_pos_site_id
 _symmetry_equiv_pos_as_xyz
  1  'x, y, z'
loop_
 _atom_site_type_symbol
 _atom_site_label
 _atom_site_symmetry_multiplicity
 _atom_site_fract_x
 _atom_site_fract_y
 _atom_site_fract_z
 _atom_site_occupancy
  Zn  Zn0  1  0.39163317  0.32415555  0.40239146  1
  Zn  Zn1  1  0.90394475  0.55288365  0.17814831  1
  H  H2  1  0.16515551  0.46904809  0.96518592  1
  H  H3  1  0.00263627  0.92479376  0.54485801  1
  H  H4  1  0.50846517  0.00713739  0.20569191  1
  Cl  Cl5  1  0.69084805  0.71532998  0.77666870  1
  O  O6  1  0.10844625  0.92492276  0.44889199  1
  O  O7  1  0.22020534  0.54891920  0.14647233  1
  O  O8  1  0.61170671  0.23249743  0.27649369  1
