data_image0
_chemical_formula_structural       ZnF3ZnF3
_chemical_formula_sum              "Zn2 F6"
_cell_length_a       3.0795434015039107
_cell_length_b       6.452669487383093
_cell_length_c       6.004641532897949
_cell_angle_alpha    76.828317282577
_cell_angle_beta     89.97522940695991
_cell_angle_gamma    103.90693053275959

_space_group_name_H-M_alt    "P 1"
_space_group_IT_number       1

loop_
  _space_group_symop_operation_xyz
  'x, y, z'

loop_
  _atom_site_type_symbol
  _atom_site_label
  _atom_site_symmetry_multiplicity
  _atom_site_fract_x
  _atom_site_fract_y
  _atom_site_fract_z
  _atom_site_occupancy
  Zn  Zn1       1.0  0.8896877765655518  0.6592661738395691  0.6213884949684143  1.0000
  F   F1        1.0  0.3732602298259735  0.6241602897644043  0.4331814646720886  1.0000
  F   F2        1.0  0.036444008350372314  0.9530050754547119  0.5711795091629028  1.0000
  F   F3        1.0  0.7200689315795898  0.3183146119117737  0.7628157138824463  1.0000
  Zn  Zn2       1.0  0.1957419514656067  0.2667008936405182  0.01079917512834073  1.0000
  F   F4        1.0  0.36691710352897644  0.6089085340499877  0.868822455406189  1.0000
  F   F5        1.0  0.7122662663459778  0.3020113408565521  0.2001238465309143  1.0000
  F   F6        1.0  0.046794794499874115  0.9743813872337341  0.05948337540030475  1.0000
