# generated using pymatgen
data_ZnGaIr2
_symmetry_space_group_name_H-M   'P 1'
_cell_length_a   4.29805931
_cell_length_b   4.29791830
_cell_length_c   4.29827202
_cell_angle_alpha   60.00277355
_cell_angle_beta   60.00437028
_cell_angle_gamma   60.00443285
_symmetry_Int_Tables_number   1
_chemical_formula_structural   ZnGaIr2
_chemical_formula_sum   'Zn1 Ga1 Ir2'
_cell_volume   56.14970145
_cell_formula_units_Z   1
loop_
 _symmetry_equiv_pos_site_id
 _symmetry_equiv_pos_as_xyz
  1  'x, y, z'
loop_
 _atom_site_type_symbol
 _atom_site_label
 _atom_site_symmetry_multiplicity
 _atom_site_fract_x
 _atom_site_fract_y
 _atom_site_fract_z
 _atom_site_occupancy
  Zn  Zn0  1  0.41944401  0.85652664  0.57515228  1
  Ga  Ga1  1  0.91889964  0.35623633  0.07505560  1
  Ir  Ir2  1  0.16909524  0.60634268  0.32506622  1
  Ir  Ir3  1  0.66932233  0.10639353  0.82521929  1
