# generated using pymatgen
data_ZnGaN2
_symmetry_space_group_name_H-M   'P 1'
_cell_length_a   3.18485939
_cell_length_b   3.18754406
_cell_length_c   4.72481697
_cell_angle_alpha   89.98927180
_cell_angle_beta   89.98744841
_cell_angle_gamma   90.03370980
_symmetry_Int_Tables_number   1
_chemical_formula_structural   ZnGaN2
_chemical_formula_sum   'Zn1 Ga1 N2'
_cell_volume   47.96576286
_cell_formula_units_Z   1
loop_
 _symmetry_equiv_pos_site_id
 _symmetry_equiv_pos_as_xyz
  1  'x, y, z'
loop_
 _atom_site_type_symbol
 _atom_site_label
 _atom_site_symmetry_multiplicity
 _atom_site_fract_x
 _atom_site_fract_y
 _atom_site_fract_z
 _atom_site_occupancy
  Zn  Zn0  1  0.05678802  0.68264079  0.27594753  1
  Ga  Ga1  1  0.55694113  0.18262838  0.77590014  1
  N  N2  1  0.05682143  0.18257135  0.53781304  1
  N  N3  1  0.55675390  0.68254704  0.01464060  1
