data_image0
_chemical_formula_structural       BrZrI3Zr
_chemical_formula_sum              "Br1 Zr2 I3"
_cell_length_a       3.8626330763055288
_cell_length_b       3.858709793871514
_cell_length_c       22.02967643737793
_cell_angle_alpha    89.92219299188008
_cell_angle_beta     90.76719666340908
_cell_angle_gamma    120.17201240488876

_space_group_name_H-M_alt    "P 1"
_space_group_IT_number       1

loop_
  _space_group_symop_operation_xyz
  'x, y, z'

loop_
  _atom_site_type_symbol
  _atom_site_label
  _atom_site_symmetry_multiplicity
  _atom_site_fract_x
  _atom_site_fract_y
  _atom_site_fract_z
  _atom_site_occupancy
  Br  Br1       1.0  0.049960333853960016  0.1589483469724655  0.47163698077201843  1.0000
  Zr  Zr1       1.0  0.38868811726570124  0.8264966607093811  0.552290141582489  1.0000
  I   I1        1.0  0.08710809797048567  0.18660405278205872  0.007261543534696102  1.0000
  I   I2        1.0  0.4045673310756683  0.84035724401474  0.8426411747932434  1.0000
  I   I3        1.0  0.7282878756523131  0.49578621983528137  0.6419520378112793  1.0000
  Zr  Zr2       1.0  0.7455820441246032  0.5118945837020874  0.9269356727600098  1.0000
