# generated using pymatgen
data_Zr3GaPd4
_symmetry_space_group_name_H-M   'P 1'
_cell_length_a   4.13180666
_cell_length_b   4.01065096
_cell_length_c   9.43691454
_cell_angle_alpha   115.12715923
_cell_angle_beta   90.01699127
_cell_angle_gamma   89.99932922
_symmetry_Int_Tables_number   1
_chemical_formula_structural   Zr3GaPd4
_chemical_formula_sum   'Zr3 Ga1 Pd4'
_cell_volume   141.58257808
_cell_formula_units_Z   1
loop_
 _symmetry_equiv_pos_site_id
 _symmetry_equiv_pos_as_xyz
  1  'x, y, z'
loop_
 _atom_site_type_symbol
 _atom_site_label
 _atom_site_symmetry_multiplicity
 _atom_site_fract_x
 _atom_site_fract_y
 _atom_site_fract_z
 _atom_site_occupancy
  Zr  Zr0  1  0.18199229  0.87228756  0.54362295  1
  Zr  Zr1  1  0.68237882  0.13733587  0.80772439  1
  Zr  Zr2  1  0.68067235  0.90263204  0.07335850  1
  Ga  Ga3  1  0.68179895  0.63898666  0.31010355  1
  Pd  Pd4  1  0.18104825  0.38177340  0.05258259  1
  Pd  Pd5  1  0.18140561  0.13566068  0.30680416  1
  Pd  Pd6  1  0.18232413  0.63338102  0.80390784  1
  Pd  Pd7  1  0.68188049  0.38434224  0.55570182  1
