# generated using pymatgen
data_ZrAu5
_symmetry_space_group_name_H-M   'P 1'
_cell_length_a   5.60158484
_cell_length_b   4.80264847
_cell_length_c   4.80074090
_cell_angle_alpha   120.03015095
_cell_angle_beta   90.05061627
_cell_angle_gamma   89.94865228
_symmetry_Int_Tables_number   1
_chemical_formula_structural   ZrAu5
_chemical_formula_sum   'Zr1 Au5'
_cell_volume   111.81456009
_cell_formula_units_Z   1
loop_
 _symmetry_equiv_pos_site_id
 _symmetry_equiv_pos_as_xyz
  1  'x, y, z'
loop_
 _atom_site_type_symbol
 _atom_site_label
 _atom_site_symmetry_multiplicity
 _atom_site_fract_x
 _atom_site_fract_y
 _atom_site_fract_z
 _atom_site_occupancy
  Zr  Zr0  1  0.93665130  0.40885152  0.93275449  1
  Au  Au1  1  0.43665927  0.40901765  0.93272536  1
  Au  Au2  1  0.69716682  0.07569379  0.26582556  1
  Au  Au3  1  0.17587918  0.74208285  0.59967020  1
  Au  Au4  1  0.67894470  0.74234923  0.59906281  1
  Au  Au5  1  0.19410672  0.07543764  0.26643213  1
