data_image0
_chemical_formula_structural       Pd2GaZrGa2Pd3Ga
_chemical_formula_sum              "Pd5 Ga4 Zr1"
_cell_length_a       3.9739285484620632
_cell_length_b       3.9432720096991223
_cell_length_c       10.716794967651367
_cell_angle_alpha    79.50886664643103
_cell_angle_beta     90.15037596191314
_cell_angle_gamma    90.02328662174591

_space_group_name_H-M_alt    "P 1"
_space_group_IT_number       1

loop_
  _space_group_symop_operation_xyz
  'x, y, z'

loop_
  _atom_site_type_symbol
  _atom_site_label
  _atom_site_symmetry_multiplicity
  _atom_site_fract_x
  _atom_site_fract_y
  _atom_site_fract_z
  _atom_site_occupancy
  Pd  Pd1       1.0  0.6839569807052612  0.05712039768695831  0.993861496448517  1.0000
  Pd  Pd2       1.0  0.1869225800037384  0.7132786512374878  0.6806253790855408  1.0000
  Ga  Ga1       1.0  0.686639130115509  0.7998173236846925  0.5042778849601746  1.0000
  Zr  Zr1       1.0  0.684522807598114  0.4318663775920868  0.23981273174285891  1.0000
  Ga  Ga2       1.0  0.18476568162441254  0.9880424737930299  0.1299119591712952  1.0000
  Ga  Ga3       1.0  0.6852187514305115  0.6334831714630127  0.8391850590705873  1.0000
  Pd  Pd3       1.0  0.18379664421081543  0.5584908723831177  0.9896964430809022  1.0000
  Pd  Pd4       1.0  0.18577523529529572  0.8739412426948547  0.35717839002609253  1.0000
  Pd  Pd5       1.0  0.6871156692504883  0.21307425200939178  0.6807687282562256  1.0000
  Ga  Ga4       1.0  0.185870960354805  0.29676505923271185  0.5107215046882629  1.0000
