# generated using pymatgen
data_ZrIrPd2
_symmetry_space_group_name_H-M   'P 1'
_cell_length_a   4.54262234
_cell_length_b   4.54186189
_cell_length_c   4.54479227
_cell_angle_alpha   59.99081583
_cell_angle_beta   59.97648686
_cell_angle_gamma   60.03805873
_symmetry_Int_Tables_number   1
_chemical_formula_structural   ZrIrPd2
_chemical_formula_sum   'Zr1 Ir1 Pd2'
_cell_volume   66.30662412
_cell_formula_units_Z   1
loop_
 _symmetry_equiv_pos_site_id
 _symmetry_equiv_pos_as_xyz
  1  'x, y, z'
loop_
 _atom_site_type_symbol
 _atom_site_label
 _atom_site_symmetry_multiplicity
 _atom_site_fract_x
 _atom_site_fract_y
 _atom_site_fract_z
 _atom_site_occupancy
  Zr  Zr0  1  0.48155739  0.71302635  0.79406130  1
  Ir  Ir1  1  0.98181260  0.21351130  0.29403320  1
  Pd  Pd2  1  0.23182279  0.46348216  0.54411763  1
  Pd  Pd3  1  0.73178918  0.96373546  0.04390805  1
