data_image0
_chemical_formula_structural       MnZrN2
_chemical_formula_sum              "Mn1 Zr1 N2"
_cell_length_a       3.1894114357163654
_cell_length_b       3.1925997182391703
_cell_length_c       4.474628925323486
_cell_angle_alpha    90.05760831702736
_cell_angle_beta     89.96757276823796
_cell_angle_gamma    90.10655345015644

_space_group_name_H-M_alt    "P 1"
_space_group_IT_number       1

loop_
  _space_group_symop_operation_xyz
  'x, y, z'

loop_
  _atom_site_type_symbol
  _atom_site_label
  _atom_site_symmetry_multiplicity
  _atom_site_fract_x
  _atom_site_fract_y
  _atom_site_fract_z
  _atom_site_occupancy
  Mn  Mn1       1.0  0.3936434984207154  0.21661871671676633  0.6576969623565674  1.0000
  Zr  Zr1       1.0  0.894192934036255  0.7161912322044373  0.15656428039073944  1.0000
  N   N1        1.0  0.3952168226242066  0.21531085669994351  0.15702660381793976  1.0000
  N   N2        1.0  0.8920209407806398  0.7176107764244078  0.6569591760635376  1.0000
