# generated using pymatgen
data_AgAuF4
_symmetry_space_group_name_H-M   'P 1'
_cell_length_a   3.84533492
_cell_length_b   7.30640552
_cell_length_c   7.29372235
_cell_angle_alpha   111.72644876
_cell_angle_beta   89.99992421
_cell_angle_gamma   89.99989535
_symmetry_Int_Tables_number   1
_chemical_formula_structural   AgAuF4
_chemical_formula_sum   'Ag2 Au2 F8'
_cell_volume   190.36408819
_cell_formula_units_Z   2
loop_
 _symmetry_equiv_pos_site_id
 _symmetry_equiv_pos_as_xyz
  1  'x, y, z'
loop_
 _atom_site_type_symbol
 _atom_site_label
 _atom_site_symmetry_multiplicity
 _atom_site_fract_x
 _atom_site_fract_y
 _atom_site_fract_z
 _atom_site_occupancy
  Ag  Ag0  1  0.48631695  0.24999983  0.75000034  1.0
  Ag  Ag1  1  0.51369833  0.74999995  0.25000003  1.0
  Au  Au2  1  0.99998032  0.50003152  0.49995153  1.0
  Au  Au3  1  0.99998338  0.99996806  0.00004877  1.0
  F  F4  1  0.62360084  0.69723047  0.54604159  1.0
  F  F5  1  0.62360632  0.80277119  0.95395874  1.0
  F  F6  1  0.02826158  0.96717926  0.25839649  1.0
  F  F7  1  0.02825902  0.53281985  0.24160279  1.0
  F  F8  1  0.97174541  0.03280119  0.74164415  1.0
  F  F9  1  0.97174174  0.46719811  0.75835386  1.0
  F  F10  1  0.37640513  0.19718955  0.04606574  1.0
  F  F11  1  0.37640096  0.30281104  0.45393598  1.0
