# generated using pymatgen
data_AgIrF4
_symmetry_space_group_name_H-M   'P 1'
_cell_length_a   3.33131590
_cell_length_b   7.16528869
_cell_length_c   7.12298223
_cell_angle_alpha   115.15326043
_cell_angle_beta   89.99999653
_cell_angle_gamma   90.00001751
_symmetry_Int_Tables_number   1
_chemical_formula_structural   AgIrF4
_chemical_formula_sum   'Ag2 Ir2 F8'
_cell_volume   153.90172335
_cell_formula_units_Z   2
loop_
 _symmetry_equiv_pos_site_id
 _symmetry_equiv_pos_as_xyz
  1  'x, y, z'
loop_
 _atom_site_type_symbol
 _atom_site_label
 _atom_site_symmetry_multiplicity
 _atom_site_fract_x
 _atom_site_fract_y
 _atom_site_fract_z
 _atom_site_occupancy
  Ag  Ag0  1  0.50441054  0.25000002  0.74999999  1.0
  Ag  Ag1  1  0.49558944  0.74999998  0.25000001  1.0
  Ir  Ir2  1  0.99999999  0.50000004  0.50000000  1.0
  Ir  Ir3  1  0.99999999  0.99999996  0.99999999  1.0
  F  F4  1  0.50049733  0.68465078  0.55585503  1.0
  F  F5  1  0.50049744  0.81534920  0.94414483  1.0
  F  F6  1  0.99625172  0.00318985  0.28546975  1.0
  F  F7  1  0.99625173  0.49680999  0.21453016  1.0
  F  F8  1  0.00374830  0.99681015  0.71453014  1.0
  F  F9  1  0.00374829  0.50319002  0.78546996  1.0
  F  F10  1  0.49950256  0.18465080  0.05585513  1.0
  F  F11  1  0.49950267  0.31534922  0.44414501  1.0
