# generated using pymatgen
data_AlHgI4
_symmetry_space_group_name_H-M   'P 1'
_cell_length_a   9.31281220
_cell_length_b   9.35070298
_cell_length_c   15.38525712
_cell_angle_alpha   71.64620932
_cell_angle_beta   89.99984323
_cell_angle_gamma   89.99979742
_symmetry_Int_Tables_number   1
_chemical_formula_structural   AlHgI4
_chemical_formula_sum   'Al4 Hg4 I16'
_cell_volume   1271.61514769
_cell_formula_units_Z   4
loop_
 _symmetry_equiv_pos_site_id
 _symmetry_equiv_pos_as_xyz
  1  'x, y, z'
loop_
 _atom_site_type_symbol
 _atom_site_label
 _atom_site_symmetry_multiplicity
 _atom_site_fract_x
 _atom_site_fract_y
 _atom_site_fract_z
 _atom_site_occupancy
  Al  Al0  1  0.04272096  0.00000058  0.74999849  1.0
  Al  Al1  1  0.95727772  0.99999931  0.25000109  1.0
  Al  Al2  1  0.68557214  0.50000095  0.75000040  1.0
  Al  Al3  1  0.31443101  0.49999847  0.24999836  1.0
  Hg  Hg4  1  0.85650806  0.75111505  0.52072790  1.0
  Hg  Hg5  1  0.14349300  0.24888301  0.47926992  1.0
  Hg  Hg6  1  0.85650891  0.24888202  0.97927384  1.0
  Hg  Hg7  1  0.14348933  0.75112029  0.02072785  1.0
  I  I8  1  0.29141319  0.79614629  0.86182175  1.0
  I  I9  1  0.70858360  0.20385423  0.13817848  1.0
  I  I10  1  0.29141528  0.20385269  0.63817940  1.0
  I  I11  1  0.70858347  0.79614707  0.36182204  1.0
  I  I12  1  0.54828898  0.73030053  0.64688510  1.0
  I  I13  1  0.45171615  0.26969285  0.35312038  1.0
  I  I14  1  0.54828880  0.26970072  0.85311493  1.0
  I  I15  1  0.45171613  0.73030604  0.14687977  1.0
  I  I16  1  0.83076647  0.39973688  0.63642836  1.0
  I  I17  1  0.16922490  0.60026872  0.36357643  1.0
  I  I18  1  0.83076697  0.60026247  0.86357164  1.0
  I  I19  1  0.16922613  0.39973405  0.13642422  1.0
  I  I20  1  0.90434385  0.79812472  0.10810401  1.0
  I  I21  1  0.09566121  0.20187135  0.89189503  1.0
  I  I22  1  0.90434138  0.20187583  0.39189458  1.0
  I  I23  1  0.09566234  0.79812588  0.60810602  1.0
