# generated using pymatgen
data_AlSI
_symmetry_space_group_name_H-M   'P 1'
_cell_length_a   4.76077040
_cell_length_b   4.76077017
_cell_length_c   4.76077006
_cell_angle_alpha   59.99999528
_cell_angle_beta   59.99999447
_cell_angle_gamma   59.99999526
_symmetry_Int_Tables_number   1
_chemical_formula_structural   AlSI
_chemical_formula_sum   'Al1 S1 I1'
_cell_volume   76.29860754
_cell_formula_units_Z   1
loop_
 _symmetry_equiv_pos_site_id
 _symmetry_equiv_pos_as_xyz
  1  'x, y, z'
loop_
 _atom_site_type_symbol
 _atom_site_label
 _atom_site_symmetry_multiplicity
 _atom_site_fract_x
 _atom_site_fract_y
 _atom_site_fract_z
 _atom_site_occupancy
  Al  Al0  1  0.00000001  0.00000001  0.99999997  1.0
  S  S1  1  0.74999998  0.75000004  0.75000003  1.0
  I  I2  1  0.25000001  0.24999995  0.25000000  1.0
