# generated using pymatgen
data_AsPb2Cl
_symmetry_space_group_name_H-M   'P 1'
_cell_length_a   5.31763449
_cell_length_b   5.31762736
_cell_length_c   5.31762020
_cell_angle_alpha   59.99968998
_cell_angle_beta   59.99984682
_cell_angle_gamma   59.99986618
_symmetry_Int_Tables_number   1
_chemical_formula_structural   AsPb2Cl
_chemical_formula_sum   'As1 Pb2 Cl1'
_cell_volume   106.32533042
_cell_formula_units_Z   1
loop_
 _symmetry_equiv_pos_site_id
 _symmetry_equiv_pos_as_xyz
  1  'x, y, z'
loop_
 _atom_site_type_symbol
 _atom_site_label
 _atom_site_symmetry_multiplicity
 _atom_site_fract_x
 _atom_site_fract_y
 _atom_site_fract_z
 _atom_site_occupancy
  As  As0  1  0.24999897  0.24999890  0.24999899  1.0
  Pb  Pb1  1  0.50000006  0.50000007  0.49999996  1.0
  Pb  Pb2  1  0.00000005  0.00000004  0.00000003  1.0
  Cl  Cl3  1  0.74999992  0.74999999  0.75000002  1.0
