# generated using pymatgen
data_Au2ClF
_symmetry_space_group_name_H-M   'P 1'
_cell_length_a   4.16276154
_cell_length_b   9.62114893
_cell_length_c   6.60040633
_cell_angle_alpha   45.79549829
_cell_angle_beta   90.15427854
_cell_angle_gamma   89.97397718
_symmetry_Int_Tables_number   1
_chemical_formula_structural   Au2ClF
_chemical_formula_sum   'Au4 Cl2 F2'
_cell_volume   189.49907420
_cell_formula_units_Z   2
loop_
 _symmetry_equiv_pos_site_id
 _symmetry_equiv_pos_as_xyz
  1  'x, y, z'
loop_
 _atom_site_type_symbol
 _atom_site_label
 _atom_site_symmetry_multiplicity
 _atom_site_fract_x
 _atom_site_fract_y
 _atom_site_fract_z
 _atom_site_occupancy
  Au  Au0  1  0.49994508  0.13675324  0.54888833  1.0
  Au  Au1  1  0.99922172  0.36284337  0.45086746  1.0
  Au  Au2  1  0.49925295  0.86322561  0.45113826  1.0
  Au  Au3  1  0.99993462  0.63712115  0.54919207  1.0
  Cl  Cl4  1  0.00020144  0.00001575  0.49996579  1.0
  Cl  Cl5  1  0.50017491  0.50002882  0.49993621  1.0
  F  F6  1  0.00069099  0.50000386  0.00001026  1.0
  F  F7  1  0.50057830  0.00000819  0.00000162  1.0
