# generated using pymatgen
data_Ba2AsCl
_symmetry_space_group_name_H-M   'P 1'
_cell_length_a   5.69918460
_cell_length_b   5.69918414
_cell_length_c   5.69918417
_cell_angle_alpha   60.00000251
_cell_angle_beta   60.00000307
_cell_angle_gamma   60.00000222
_symmetry_Int_Tables_number   1
_chemical_formula_structural   Ba2AsCl
_chemical_formula_sum   'Ba2 As1 Cl1'
_cell_volume   130.89502269
_cell_formula_units_Z   1
loop_
 _symmetry_equiv_pos_site_id
 _symmetry_equiv_pos_as_xyz
  1  'x, y, z'
loop_
 _atom_site_type_symbol
 _atom_site_label
 _atom_site_symmetry_multiplicity
 _atom_site_fract_x
 _atom_site_fract_y
 _atom_site_fract_z
 _atom_site_occupancy
  Ba  Ba0  1  0.24999995  0.25000001  0.25000005  1.0
  Ba  Ba1  1  0.75000006  0.74999997  0.74999997  1.0
  As  As2  1  0.00000000  0.00000001  0.00000001  1.0
  Cl  Cl3  1  0.50000000  0.50000002  0.49999997  1.0
