# generated using pymatgen
data_Ba2PCl
_symmetry_space_group_name_H-M   'P 1'
_cell_length_a   5.71654124
_cell_length_b   5.71806007
_cell_length_c   9.52229536
_cell_angle_alpha   89.96757962
_cell_angle_beta   90.01223043
_cell_angle_gamma   120.07257580
_symmetry_Int_Tables_number   1
_chemical_formula_structural   Ba2PCl
_chemical_formula_sum   'Ba4 P2 Cl2'
_cell_volume   269.36191405
_cell_formula_units_Z   2
loop_
 _symmetry_equiv_pos_site_id
 _symmetry_equiv_pos_as_xyz
  1  'x, y, z'
loop_
 _atom_site_type_symbol
 _atom_site_label
 _atom_site_symmetry_multiplicity
 _atom_site_fract_x
 _atom_site_fract_y
 _atom_site_fract_z
 _atom_site_occupancy
  Ba  Ba0  1  0.33356668  0.66666667  0.41711204  1.0
  Ba  Ba1  1  0.33343868  0.66647852  0.08111179  1.0
  Ba  Ba2  1  0.66656134  0.33352151  0.91888820  1.0
  Ba  Ba3  1  0.66643333  0.33333333  0.58288796  1.0
  P  P4  1  0.33307274  0.66677861  0.74990404  1.0
  P  P5  1  0.66692725  0.33322139  0.25009595  1.0
  Cl  Cl6  1  0.00005866  0.99997003  0.74910262  1.0
  Cl  Cl7  1  0.99994132  0.00002997  0.25089740  1.0
