# generated using pymatgen
data_Ba2SbCl
_symmetry_space_group_name_H-M   'P 1'
_cell_length_a   5.01815475
_cell_length_b   8.27726296
_cell_length_c   17.37540807
_cell_angle_alpha   100.10042571
_cell_angle_beta   89.99990528
_cell_angle_gamma   107.64586020
_symmetry_Int_Tables_number   1
_chemical_formula_structural   Ba2SbCl
_chemical_formula_sum   'Ba8 Sb4 Cl4'
_cell_volume   676.01045101
_cell_formula_units_Z   4
loop_
 _symmetry_equiv_pos_site_id
 _symmetry_equiv_pos_as_xyz
  1  'x, y, z'
loop_
 _atom_site_type_symbol
 _atom_site_label
 _atom_site_symmetry_multiplicity
 _atom_site_fract_x
 _atom_site_fract_y
 _atom_site_fract_z
 _atom_site_occupancy
  Ba  Ba0  1  0.13119008  0.25932458  0.93827025  1.0
  Ba  Ba1  1  0.87187052  0.74067900  0.56172935  1.0
  Ba  Ba2  1  0.86880992  0.74067542  0.06172975  1.0
  Ba  Ba3  1  0.12812948  0.25932100  0.43827065  1.0
  Ba  Ba4  1  0.62967506  0.25992626  0.18826696  1.0
  Ba  Ba5  1  0.63025293  0.25993333  0.68826778  1.0
  Ba  Ba6  1  0.37032494  0.74007374  0.81173304  1.0
  Ba  Ba7  1  0.36974707  0.74006667  0.31173222  1.0
  Sb  Sb8  1  0.25142938  0.50016899  0.62490968  1.0
  Sb  Sb9  1  0.75126178  0.49983570  0.87509045  1.0
  Sb  Sb10  1  0.74857062  0.49983101  0.37509032  1.0
  Sb  Sb11  1  0.24873822  0.50016430  0.12490955  1.0
  Cl  Cl12  1  0.50000000  0.00000000  0.00000000  1.0
  Cl  Cl13  1  0.01164708  0.99999661  0.75000104  1.0
  Cl  Cl14  1  0.50000000  0.00000000  0.50000000  1.0
  Cl  Cl15  1  0.98835293  0.00000339  0.24999896  1.0
