# generated using pymatgen
data_BaMgSe2
_symmetry_space_group_name_H-M   'P 1'
_cell_length_a   5.36937179
_cell_length_b   5.36935884
_cell_length_c   5.36938770
_cell_angle_alpha   59.99964859
_cell_angle_beta   59.99954813
_cell_angle_gamma   59.99970153
_symmetry_Int_Tables_number   1
_chemical_formula_structural   BaMgSe2
_chemical_formula_sum   'Ba1 Mg1 Se2'
_cell_volume   109.45914605
_cell_formula_units_Z   1
loop_
 _symmetry_equiv_pos_site_id
 _symmetry_equiv_pos_as_xyz
  1  'x, y, z'
loop_
 _atom_site_type_symbol
 _atom_site_label
 _atom_site_symmetry_multiplicity
 _atom_site_fract_x
 _atom_site_fract_y
 _atom_site_fract_z
 _atom_site_occupancy
  Ba  Ba0  1  0.49999997  0.50000004  0.49999998  1.0
  Mg  Mg1  1  0.00000012  0.99999990  0.00000002  1.0
  Se  Se2  1  0.24999997  0.24999998  0.25000002  1.0
  Se  Se3  1  0.74999994  0.75000008  0.74999999  1.0
