# generated using pymatgen
data_BaP2Rh
_symmetry_space_group_name_H-M   'P 1'
_cell_length_a   4.91731857
_cell_length_b   4.91731796
_cell_length_c   4.91731796
_cell_angle_alpha   59.99999331
_cell_angle_beta   59.99998937
_cell_angle_gamma   59.99999683
_symmetry_Int_Tables_number   1
_chemical_formula_structural   BaP2Rh
_chemical_formula_sum   'Ba1 P2 Rh1'
_cell_volume   84.07557816
_cell_formula_units_Z   1
loop_
 _symmetry_equiv_pos_site_id
 _symmetry_equiv_pos_as_xyz
  1  'x, y, z'
loop_
 _atom_site_type_symbol
 _atom_site_label
 _atom_site_symmetry_multiplicity
 _atom_site_fract_x
 _atom_site_fract_y
 _atom_site_fract_z
 _atom_site_occupancy
  Ba  Ba0  1  0.49999999  0.50000000  0.50000000  1.0
  P  P1  1  0.74999998  0.75000000  0.75000002  1.0
  P  P2  1  0.25000003  0.25000000  0.24999997  1.0
  Rh  Rh3  1  0.00000000  0.99999999  0.00000000  1.0
