# generated using pymatgen
data_BaPbBr4
_symmetry_space_group_name_H-M   'P 1'
_cell_length_a   7.66141832
_cell_length_b   7.74233785
_cell_length_c   7.73916304
_cell_angle_alpha   90.01311958
_cell_angle_beta   89.99164944
_cell_angle_gamma   89.28662124
_symmetry_Int_Tables_number   1
_chemical_formula_structural   BaPbBr4
_chemical_formula_sum   'Ba2 Pb2 Br8'
_cell_volume   459.03057154
_cell_formula_units_Z   2
loop_
 _symmetry_equiv_pos_site_id
 _symmetry_equiv_pos_as_xyz
  1  'x, y, z'
loop_
 _atom_site_type_symbol
 _atom_site_label
 _atom_site_symmetry_multiplicity
 _atom_site_fract_x
 _atom_site_fract_y
 _atom_site_fract_z
 _atom_site_occupancy
  Ba  Ba0  1  0.99999994  0.74998307  0.75156280  1.0
  Ba  Ba1  1  0.00000004  0.25001691  0.24843722  1.0
  Pb  Pb2  1  0.49991035  0.75004578  0.25511245  1.0
  Pb  Pb3  1  0.50008954  0.24995420  0.74488734  1.0
  Br  Br4  1  0.74392701  0.03016968  0.97272983  1.0
  Br  Br5  1  0.25607293  0.96983043  0.02727007  1.0
  Br  Br6  1  0.25604998  0.46983077  0.97266653  1.0
  Br  Br7  1  0.74395019  0.53016936  0.02733364  1.0
  Br  Br8  1  0.74440315  0.47423729  0.52636966  1.0
  Br  Br9  1  0.25559702  0.52576259  0.47363050  1.0
  Br  Br10  1  0.25555996  0.02577713  0.52631643  1.0
  Br  Br11  1  0.74443987  0.97422279  0.47368351  1.0
