# generated using pymatgen
data_BaSb2Pd
_symmetry_space_group_name_H-M   'P 1'
_cell_length_a   4.86084404
_cell_length_b   4.86084133
_cell_length_c   6.54028462
_cell_angle_alpha   90.00005822
_cell_angle_beta   89.99994421
_cell_angle_gamma   120.00012610
_symmetry_Int_Tables_number   1
_chemical_formula_structural   BaSb2Pd
_chemical_formula_sum   'Ba1 Sb2 Pd1'
_cell_volume   133.82888512
_cell_formula_units_Z   1
loop_
 _symmetry_equiv_pos_site_id
 _symmetry_equiv_pos_as_xyz
  1  'x, y, z'
loop_
 _atom_site_type_symbol
 _atom_site_label
 _atom_site_symmetry_multiplicity
 _atom_site_fract_x
 _atom_site_fract_y
 _atom_site_fract_z
 _atom_site_occupancy
  Ba  Ba0  1  0.99999983  0.00000008  0.49999966  1.0
  Sb  Sb1  1  0.33333333  0.66666667  0.11525542  1.0
  Sb  Sb2  1  0.66666667  0.33333333  0.88474491  1.0
  Pd  Pd3  1  0.00000004  0.99999992  0.00000001  1.0
