# generated using pymatgen
data_BaSeO4
_symmetry_space_group_name_H-M   'P 1'
_cell_length_a   6.46651545
_cell_length_b   4.90665206
_cell_length_c   6.49467333
_cell_angle_alpha   89.94920325
_cell_angle_beta   89.99897533
_cell_angle_gamma   89.99869668
_symmetry_Int_Tables_number   1
_chemical_formula_structural   BaSeO4
_chemical_formula_sum   'Ba2 Se2 O8'
_cell_volume   206.06902813
_cell_formula_units_Z   2
loop_
 _symmetry_equiv_pos_site_id
 _symmetry_equiv_pos_as_xyz
  1  'x, y, z'
loop_
 _atom_site_type_symbol
 _atom_site_label
 _atom_site_symmetry_multiplicity
 _atom_site_fract_x
 _atom_site_fract_y
 _atom_site_fract_z
 _atom_site_occupancy
  Ba  Ba0  1  0.24971556  0.50000123  0.74999285  1.0
  Ba  Ba1  1  0.75028375  0.50000016  0.25000459  1.0
  Se  Se2  1  0.75024430  0.99999939  0.74994546  1.0
  Se  Se3  1  0.24973150  0.99999830  0.24996961  1.0
  O  O4  1  0.60331290  0.79090908  0.89623907  1.0
  O  O5  1  0.89711038  0.79054246  0.60421000  1.0
  O  O6  1  0.39668601  0.79091923  0.39623324  1.0
  O  O7  1  0.10291557  0.79056169  0.10422949  1.0
  O  O8  1  0.89711078  0.20947582  0.89580246  1.0
  O  O9  1  0.60332794  0.20906012  0.60378651  1.0
  O  O10  1  0.10288811  0.20946655  0.39580123  1.0
  O  O11  1  0.39667318  0.20906597  0.10378549  1.0
