# generated using pymatgen
data_BaSrCl4
_symmetry_space_group_name_H-M   'P 1'
_cell_length_a   7.05558611
_cell_length_b   7.91878553
_cell_length_c   16.94844740
_cell_angle_alpha   71.41199640
_cell_angle_beta   89.99999396
_cell_angle_gamma   90.00000332
_symmetry_Int_Tables_number   1
_chemical_formula_structural   BaSrCl4
_chemical_formula_sum   'Ba4 Sr4 Cl16'
_cell_volume   897.54125030
_cell_formula_units_Z   4
loop_
 _symmetry_equiv_pos_site_id
 _symmetry_equiv_pos_as_xyz
  1  'x, y, z'
loop_
 _atom_site_type_symbol
 _atom_site_label
 _atom_site_symmetry_multiplicity
 _atom_site_fract_x
 _atom_site_fract_y
 _atom_site_fract_z
 _atom_site_occupancy
  Ba  Ba0  1  0.05581918  0.71402158  0.84210929  1.0
  Ba  Ba1  1  0.44418097  0.71402189  0.34210921  1.0
  Ba  Ba2  1  0.55581918  0.28597810  0.65789076  1.0
  Ba  Ba3  1  0.94418092  0.28597845  0.15789073  1.0
  Sr  Sr4  1  0.29676345  0.82120308  0.58947444  1.0
  Sr  Sr5  1  0.20323644  0.82120343  0.08947441  1.0
  Sr  Sr6  1  0.79676317  0.17879657  0.91052557  1.0
  Sr  Sr7  1  0.70323644  0.17879682  0.41052562  1.0
  Cl  Cl8  1  0.18137818  0.04235566  0.68333183  1.0
  Cl  Cl9  1  0.31862179  0.04235610  0.18333170  1.0
  Cl  Cl10  1  0.67788979  0.96212308  0.58458020  1.0
  Cl  Cl11  1  0.82211001  0.96212323  0.08458023  1.0
  Cl  Cl12  1  0.35482476  0.54827601  0.74518950  1.0
  Cl  Cl13  1  0.26666210  0.53710778  0.52150962  1.0
  Cl  Cl14  1  0.14517538  0.54827629  0.24518956  1.0
  Cl  Cl15  1  0.76666215  0.46289200  0.97849040  1.0
  Cl  Cl16  1  0.23333807  0.53710813  0.02150963  1.0
  Cl  Cl17  1  0.85482486  0.45172362  0.75481043  1.0
  Cl  Cl18  1  0.73333801  0.46289221  0.47849033  1.0
  Cl  Cl19  1  0.64517533  0.45172400  0.25481049  1.0
  Cl  Cl20  1  0.17788976  0.03787690  0.91541982  1.0
  Cl  Cl21  1  0.32211008  0.03787674  0.41541978  1.0
  Cl  Cl22  1  0.68137815  0.95764392  0.81666828  1.0
  Cl  Cl23  1  0.81862184  0.95764440  0.31666818  1.0
