# generated using pymatgen
data_BeCdF4
_symmetry_space_group_name_H-M   'P 1'
_cell_length_a   5.59368535
_cell_length_b   4.89352820
_cell_length_c   5.05014301
_cell_angle_alpha   84.34798612
_cell_angle_beta   90.00002751
_cell_angle_gamma   89.99995564
_symmetry_Int_Tables_number   1
_chemical_formula_structural   BeCdF4
_chemical_formula_sum   'Be2 Cd2 F8'
_cell_volume   137.56479061
_cell_formula_units_Z   2
loop_
 _symmetry_equiv_pos_site_id
 _symmetry_equiv_pos_as_xyz
  1  'x, y, z'
loop_
 _atom_site_type_symbol
 _atom_site_label
 _atom_site_symmetry_multiplicity
 _atom_site_fract_x
 _atom_site_fract_y
 _atom_site_fract_z
 _atom_site_occupancy
  Be  Be0  1  0.14568979  0.00000060  0.25000009  1.0
  Be  Be1  1  0.85431021  0.99999940  0.74999988  1.0
  Cd  Cd2  1  0.69797454  0.50000018  0.25000003  1.0
  Cd  Cd3  1  0.30202547  0.49999981  0.74999997  1.0
  F  F4  1  0.09065792  0.80489089  0.95009912  1.0
  F  F5  1  0.09065850  0.19510897  0.54990041  1.0
  F  F6  1  0.90934209  0.19510910  0.04990089  1.0
  F  F7  1  0.90934149  0.80489103  0.45009961  1.0
  F  F8  1  0.35200782  0.76684926  0.36853399  1.0
  F  F9  1  0.35200825  0.23315073  0.13146612  1.0
  F  F10  1  0.64799218  0.23315075  0.63146601  1.0
  F  F11  1  0.64799175  0.76684928  0.86853389  1.0
