# generated using pymatgen
data_BeCdBr4
_symmetry_space_group_name_H-M   'P 1'
_cell_length_a   11.95874097
_cell_length_b   5.66089360
_cell_length_c   5.64337405
_cell_angle_alpha   90.21352589
_cell_angle_beta   89.99995045
_cell_angle_gamma   90.00096409
_symmetry_Int_Tables_number   1
_chemical_formula_structural   BeCdBr4
_chemical_formula_sum   'Be2 Cd2 Br8'
_cell_volume   382.03774421
_cell_formula_units_Z   2
loop_
 _symmetry_equiv_pos_site_id
 _symmetry_equiv_pos_as_xyz
  1  'x, y, z'
loop_
 _atom_site_type_symbol
 _atom_site_label
 _atom_site_symmetry_multiplicity
 _atom_site_fract_x
 _atom_site_fract_y
 _atom_site_fract_z
 _atom_site_occupancy
  Be  Be0  1  0.25198794  0.00000173  0.25000618  1.0
  Be  Be1  1  0.74801206  0.99999827  0.74999382  1.0
  Cd  Cd2  1  0.74752855  0.49999941  0.24999953  1.0
  Cd  Cd3  1  0.25247145  0.50000059  0.75000047  1.0
  Br  Br4  1  0.13399305  0.78306490  0.03570369  1.0
  Br  Br5  1  0.13398766  0.21693745  0.46428884  1.0
  Br  Br6  1  0.86600695  0.21693510  0.96429631  1.0
  Br  Br7  1  0.86601234  0.78306255  0.53571116  1.0
  Br  Br8  1  0.36962627  0.78542670  0.46545232  1.0
  Br  Br9  1  0.36962095  0.21457087  0.03453683  1.0
  Br  Br10  1  0.63037373  0.21457330  0.53454768  1.0
  Br  Br11  1  0.63037905  0.78542913  0.96546317  1.0
