# generated using pymatgen
data_BeCuO2
_symmetry_space_group_name_H-M   'P 1'
_cell_length_a   5.28807970
_cell_length_b   5.38532987
_cell_length_c   5.31748306
_cell_angle_alpha   107.55419455
_cell_angle_beta   136.59651281
_cell_angle_gamma   55.23444375
_symmetry_Int_Tables_number   1
_chemical_formula_structural   BeCuO2
_chemical_formula_sum   'Be2 Cu2 O4'
_cell_volume   83.75881415
_cell_formula_units_Z   2
loop_
 _symmetry_equiv_pos_site_id
 _symmetry_equiv_pos_as_xyz
  1  'x, y, z'
loop_
 _atom_site_type_symbol
 _atom_site_label
 _atom_site_symmetry_multiplicity
 _atom_site_fract_x
 _atom_site_fract_y
 _atom_site_fract_z
 _atom_site_occupancy
  Be  Be0  1  0.99991746  0.50008784  0.49998381  1.0
  Be  Be1  1  0.99990577  0.00008440  0.00000299  1.0
  Cu  Cu2  1  0.38096581  0.25029511  0.12996172  1.0
  Cu  Cu3  1  0.61910215  0.74963889  0.87003699  1.0
  O  O4  1  0.50061853  0.15904703  0.83070696  1.0
  O  O5  1  0.99294114  0.34106254  0.16292436  1.0
  O  O6  1  0.00719465  0.65888061  0.83716182  1.0
  O  O7  1  0.49935448  0.84090359  0.16922136  1.0
