# generated using pymatgen
data_BeRuSe4
_symmetry_space_group_name_H-M   'P 1'
_cell_length_a   6.03137873
_cell_length_b   6.02727290
_cell_length_c   6.02978319
_cell_angle_alpha   90.39342047
_cell_angle_beta   90.00023215
_cell_angle_gamma   89.99979696
_symmetry_Int_Tables_number   1
_chemical_formula_structural   BeRuSe4
_chemical_formula_sum   'Be2 Ru2 Se8'
_cell_volume   219.19412729
_cell_formula_units_Z   2
loop_
 _symmetry_equiv_pos_site_id
 _symmetry_equiv_pos_as_xyz
  1  'x, y, z'
loop_
 _atom_site_type_symbol
 _atom_site_label
 _atom_site_symmetry_multiplicity
 _atom_site_fract_x
 _atom_site_fract_y
 _atom_site_fract_z
 _atom_site_occupancy
  Be  Be0  1  0.50000000  0.50000000  0.00000001  1.0
  Be  Be1  1  0.00000000  0.50000000  0.50000000  1.0
  Ru  Ru2  1  0.50000000  0.00000000  0.50000000  1.0
  Ru  Ru3  1  0.00000000  0.00000000  0.00000000  1.0
  Se  Se4  1  0.12073288  0.88276679  0.37816970  1.0
  Se  Se5  1  0.62073160  0.11723359  0.12183134  1.0
  Se  Se6  1  0.88186591  0.61798476  0.88364231  1.0
  Se  Se7  1  0.38186551  0.38201449  0.61635784  1.0
  Se  Se8  1  0.87926712  0.11723321  0.62183030  1.0
  Se  Se9  1  0.37926840  0.88276641  0.87816866  1.0
  Se  Se10  1  0.11813409  0.38201524  0.11635769  1.0
  Se  Se11  1  0.61813449  0.61798551  0.38364216  1.0
