# generated using pymatgen
data_BeZnO2
_symmetry_space_group_name_H-M   'P 1'
_cell_length_a   2.53498737
_cell_length_b   3.58406562
_cell_length_c   7.59443483
_cell_angle_alpha   89.42693785
_cell_angle_beta   89.99101636
_cell_angle_gamma   89.99481778
_symmetry_Int_Tables_number   1
_chemical_formula_structural   BeZnO2
_chemical_formula_sum   'Be2 Zn2 O4'
_cell_volume   68.99624918
_cell_formula_units_Z   2
loop_
 _symmetry_equiv_pos_site_id
 _symmetry_equiv_pos_as_xyz
  1  'x, y, z'
loop_
 _atom_site_type_symbol
 _atom_site_label
 _atom_site_symmetry_multiplicity
 _atom_site_fract_x
 _atom_site_fract_y
 _atom_site_fract_z
 _atom_site_occupancy
  Be  Be0  1  0.00001422  0.80345366  0.59677479  1.0
  Be  Be1  1  0.99998590  0.19654660  0.40322607  1.0
  Zn  Zn2  1  0.00000611  0.26199260  0.85538996  1.0
  Zn  Zn3  1  0.99999388  0.73800743  0.14461064  1.0
  O  O4  1  0.49987455  0.22632750  0.59770482  1.0
  O  O5  1  0.50012531  0.77367222  0.40229476  1.0
  O  O6  1  0.50003185  0.74947292  0.84723175  1.0
  O  O7  1  0.49996817  0.25052707  0.15276721  1.0
