# generated using pymatgen
data_BiBrF2
_symmetry_space_group_name_H-M   'P 1'
_cell_length_a   4.55216194
_cell_length_b   4.55216214
_cell_length_c   4.55216195
_cell_angle_alpha   59.99961155
_cell_angle_beta   59.99961664
_cell_angle_gamma   59.99961516
_symmetry_Int_Tables_number   1
_chemical_formula_structural   BiBrF2
_chemical_formula_sum   'Bi1 Br1 F2'
_cell_volume   66.70130578
_cell_formula_units_Z   1
loop_
 _symmetry_equiv_pos_site_id
 _symmetry_equiv_pos_as_xyz
  1  'x, y, z'
loop_
 _atom_site_type_symbol
 _atom_site_label
 _atom_site_symmetry_multiplicity
 _atom_site_fract_x
 _atom_site_fract_y
 _atom_site_fract_z
 _atom_site_occupancy
  Bi  Bi0  1  0.74999999  0.74999998  0.74999998  1.0
  Br  Br1  1  0.25000078  0.25000080  0.25000077  1.0
  F  F2  1  0.00000003  0.99999999  0.00000001  1.0
  F  F3  1  0.49999921  0.49999923  0.49999923  1.0
