# generated using pymatgen
data_BiSbCl2
_symmetry_space_group_name_H-M   'P 1'
_cell_length_a   7.55978204
_cell_length_b   8.23680654
_cell_length_c   10.00453922
_cell_angle_alpha   87.60031706
_cell_angle_beta   89.74202123
_cell_angle_gamma   117.50022868
_symmetry_Int_Tables_number   1
_chemical_formula_structural   BiSbCl2
_chemical_formula_sum   'Bi4 Sb4 Cl8'
_cell_volume   551.89326567
_cell_formula_units_Z   4
loop_
 _symmetry_equiv_pos_site_id
 _symmetry_equiv_pos_as_xyz
  1  'x, y, z'
loop_
 _atom_site_type_symbol
 _atom_site_label
 _atom_site_symmetry_multiplicity
 _atom_site_fract_x
 _atom_site_fract_y
 _atom_site_fract_z
 _atom_site_occupancy
  Bi  Bi0  1  0.50002870  0.99998810  0.00001674  1.0
  Bi  Bi1  1  0.03146761  0.00011094  0.75014801  1.0
  Bi  Bi2  1  0.49987133  0.99991209  0.50005996  1.0
  Bi  Bi3  1  0.96856596  0.99990798  0.24982547  1.0
  Sb  Sb4  1  0.37778032  0.29200581  0.59235529  1.0
  Sb  Sb5  1  0.08515923  0.70821010  0.90667725  1.0
  Sb  Sb6  1  0.62228847  0.70808551  0.40761850  1.0
  Sb  Sb7  1  0.91484205  0.29182306  0.09330950  1.0
  Cl  Cl8  1  0.19256464  0.26387526  0.95101835  1.0
  Cl  Cl9  1  0.92675774  0.73579383  0.54888871  1.0
  Cl  Cl10  1  0.80743771  0.73612986  0.04896991  1.0
  Cl  Cl11  1  0.07325716  0.26420610  0.45109966  1.0
  Cl  Cl12  1  0.55146779  0.23066142  0.21734676  1.0
  Cl  Cl13  1  0.67582296  0.22811403  0.72010005  1.0
  Cl  Cl14  1  0.44853841  0.76931767  0.78265150  1.0
  Cl  Cl15  1  0.32414993  0.77185824  0.27991433  1.0
