# generated using pymatgen
data_BiSeCl
_symmetry_space_group_name_H-M   'P 1'
_cell_length_a   5.01105316
_cell_length_b   5.01105340
_cell_length_c   5.01105355
_cell_angle_alpha   60.00000362
_cell_angle_beta   60.00000227
_cell_angle_gamma   60.00000124
_symmetry_Int_Tables_number   1
_chemical_formula_structural   BiSeCl
_chemical_formula_sum   'Bi1 Se1 Cl1'
_cell_volume   88.97584275
_cell_formula_units_Z   1
loop_
 _symmetry_equiv_pos_site_id
 _symmetry_equiv_pos_as_xyz
  1  'x, y, z'
loop_
 _atom_site_type_symbol
 _atom_site_label
 _atom_site_symmetry_multiplicity
 _atom_site_fract_x
 _atom_site_fract_y
 _atom_site_fract_z
 _atom_site_occupancy
  Bi  Bi0  1  0.99999996  0.00000001  0.00000005  1.0
  Se  Se1  1  0.74999998  0.75000001  0.74999997  1.0
  Cl  Cl2  1  0.50000006  0.49999998  0.49999997  1.0
