# generated using pymatgen
data_BiSe2I
_symmetry_space_group_name_H-M   'P 1'
_cell_length_a   7.33674524
_cell_length_b   9.40288092
_cell_length_c   9.43818931
_cell_angle_alpha   86.13721285
_cell_angle_beta   126.27208000
_cell_angle_gamma   125.98906681
_symmetry_Int_Tables_number   1
_chemical_formula_structural   BiSe2I
_chemical_formula_sum   'Bi2 Se4 I2'
_cell_volume   383.53414524
_cell_formula_units_Z   2
loop_
 _symmetry_equiv_pos_site_id
 _symmetry_equiv_pos_as_xyz
  1  'x, y, z'
loop_
 _atom_site_type_symbol
 _atom_site_label
 _atom_site_symmetry_multiplicity
 _atom_site_fract_x
 _atom_site_fract_y
 _atom_site_fract_z
 _atom_site_occupancy
  Bi  Bi0  1  0.24848021  0.07204750  0.92776201  1.0
  Bi  Bi1  1  0.75185677  0.92823752  0.07251621  1.0
  Se  Se2  1  0.38214892  0.08413867  0.26694033  1.0
  Se  Se3  1  0.12105243  0.73365209  0.91715818  1.0
  Se  Se4  1  0.87884719  0.26613823  0.08288447  1.0
  Se  Se5  1  0.61775835  0.91590066  0.73285977  1.0
  I  I6  1  0.75153001  0.43597401  0.56482812  1.0
  I  I7  1  0.24832611  0.56391133  0.43505091  1.0
