# generated using pymatgen
data_BiWSe4
_symmetry_space_group_name_H-M   'P 1'
_cell_length_a   7.77158972
_cell_length_b   6.91839058
_cell_length_c   6.57932486
_cell_angle_alpha   75.65447673
_cell_angle_beta   90.00015967
_cell_angle_gamma   89.99888981
_symmetry_Int_Tables_number   1
_chemical_formula_structural   BiWSe4
_chemical_formula_sum   'Bi2 W2 Se8'
_cell_volume   342.71964482
_cell_formula_units_Z   2
loop_
 _symmetry_equiv_pos_site_id
 _symmetry_equiv_pos_as_xyz
  1  'x, y, z'
loop_
 _atom_site_type_symbol
 _atom_site_label
 _atom_site_symmetry_multiplicity
 _atom_site_fract_x
 _atom_site_fract_y
 _atom_site_fract_z
 _atom_site_occupancy
  Bi  Bi0  1  0.80705627  0.50000055  0.24998632  1.0
  Bi  Bi1  1  0.19289445  0.49999914  0.75001419  1.0
  W  W2  1  0.17305965  0.99999976  0.25000481  1.0
  W  W3  1  0.82695809  0.99999933  0.74999574  1.0
  Se  Se4  1  0.07706681  0.79376384  0.99365713  1.0
  Se  Se5  1  0.07706763  0.20623603  0.50635239  1.0
  Se  Se6  1  0.92295719  0.20624823  0.00631673  1.0
  Se  Se7  1  0.92295639  0.79375234  0.49367366  1.0
  Se  Se8  1  0.38508719  0.76324003  0.42554950  1.0
  Se  Se9  1  0.38508773  0.23674692  0.07445704  1.0
  Se  Se10  1  0.61490455  0.23675631  0.57447150  1.0
  Se  Se11  1  0.61490404  0.76325751  0.92552100  1.0
