# generated using pymatgen
data_BiWS4
_symmetry_space_group_name_H-M   'P 1'
_cell_length_a   6.92914524
_cell_length_b   6.32818605
_cell_length_c   6.46010486
_cell_angle_alpha   81.41935981
_cell_angle_beta   89.99986892
_cell_angle_gamma   89.99998043
_symmetry_Int_Tables_number   1
_chemical_formula_structural   BiWS4
_chemical_formula_sum   'Bi2 W2 S8'
_cell_volume   280.09795502
_cell_formula_units_Z   2
loop_
 _symmetry_equiv_pos_site_id
 _symmetry_equiv_pos_as_xyz
  1  'x, y, z'
loop_
 _atom_site_type_symbol
 _atom_site_label
 _atom_site_symmetry_multiplicity
 _atom_site_fract_x
 _atom_site_fract_y
 _atom_site_fract_z
 _atom_site_occupancy
  Bi  Bi0  1  0.73053327  0.49999968  0.25000044  1.0
  Bi  Bi1  1  0.26946647  0.50000032  0.74999956  1.0
  W  W2  1  0.17462016  0.99999979  0.25000051  1.0
  W  W3  1  0.82539462  0.00000022  0.74999950  1.0
  S  S4  1  0.07799026  0.79416219  0.97780167  1.0
  S  S5  1  0.07799011  0.20583805  0.52219826  1.0
  S  S6  1  0.92201397  0.20583978  0.02220632  1.0
  S  S7  1  0.92201412  0.79415997  0.47779374  1.0
  S  S8  1  0.39720522  0.74937619  0.38485022  1.0
  S  S9  1  0.39720560  0.25062369  0.11514992  1.0
  S  S10  1  0.60278330  0.25063747  0.61514283  1.0
  S  S11  1  0.60278291  0.74936264  0.88485703  1.0
