# generated using pymatgen
data_Ca2SbBr
_symmetry_space_group_name_H-M   'P 1'
_cell_length_a   3.79398784
_cell_length_b   5.78184455
_cell_length_c   8.70195970
_cell_angle_alpha   90.02927520
_cell_angle_beta   90.00000823
_cell_angle_gamma   89.99980319
_symmetry_Int_Tables_number   1
_chemical_formula_structural   Ca2SbBr
_chemical_formula_sum   'Ca2 Sb1 Br1'
_cell_volume   190.88832041
_cell_formula_units_Z   1
loop_
 _symmetry_equiv_pos_site_id
 _symmetry_equiv_pos_as_xyz
  1  'x, y, z'
loop_
 _atom_site_type_symbol
 _atom_site_label
 _atom_site_symmetry_multiplicity
 _atom_site_fract_x
 _atom_site_fract_y
 _atom_site_fract_z
 _atom_site_occupancy
  Ca  Ca0  1  0.00000010  0.49999999  0.50000003  1.0
  Ca  Ca1  1  0.99999993  0.50000000  0.99999997  1.0
  Sb  Sb2  1  0.99999995  0.99999999  0.49999997  1.0
  Br  Br3  1  0.00000002  0.00000002  0.00000003  1.0
