# generated using pymatgen
data_CaBeSe2
_symmetry_space_group_name_H-M   'P 1'
_cell_length_a   3.82096519
_cell_length_b   3.82096533
_cell_length_c   6.51556889
_cell_angle_alpha   90.00137377
_cell_angle_beta   89.99862198
_cell_angle_gamma   120.00145858
_symmetry_Int_Tables_number   1
_chemical_formula_structural   CaBeSe2
_chemical_formula_sum   'Ca1 Be1 Se2'
_cell_volume   82.38018587
_cell_formula_units_Z   1
loop_
 _symmetry_equiv_pos_site_id
 _symmetry_equiv_pos_as_xyz
  1  'x, y, z'
loop_
 _atom_site_type_symbol
 _atom_site_label
 _atom_site_symmetry_multiplicity
 _atom_site_fract_x
 _atom_site_fract_y
 _atom_site_fract_z
 _atom_site_occupancy
  Ca  Ca0  1  0.99999998  0.99999999  0.00000000  1.0
  Be  Be1  1  0.00000005  0.00000002  0.50000001  1.0
  Se  Se2  1  0.33333333  0.66666667  0.70196806  1.0
  Se  Se3  1  0.66666667  0.33333333  0.29803193  1.0
