# generated using pymatgen
data_CaPbS2
_symmetry_space_group_name_H-M   'P 1'
_cell_length_a   4.48558544
_cell_length_b   7.74064248
_cell_length_c   8.62098631
_cell_angle_alpha   72.66232679
_cell_angle_beta   90.00001195
_cell_angle_gamma   89.99999933
_symmetry_Int_Tables_number   1
_chemical_formula_structural   CaPbS2
_chemical_formula_sum   'Ca2 Pb2 S4'
_cell_volume   285.73183672
_cell_formula_units_Z   2
loop_
 _symmetry_equiv_pos_site_id
 _symmetry_equiv_pos_as_xyz
  1  'x, y, z'
loop_
 _atom_site_type_symbol
 _atom_site_label
 _atom_site_symmetry_multiplicity
 _atom_site_fract_x
 _atom_site_fract_y
 _atom_site_fract_z
 _atom_site_occupancy
  Ca  Ca0  1  0.49999996  0.99999997  0.49999999  1.0
  Ca  Ca1  1  0.99999998  0.49999993  0.50000000  1.0
  Pb  Pb2  1  0.50000000  0.50000000  0.00000001  1.0
  Pb  Pb3  1  0.00000001  0.99999999  0.00000001  1.0
  S  S4  1  0.00000004  0.60223443  0.19015860  1.0
  S  S5  1  0.99999994  0.39776560  0.80984141  1.0
  S  S6  1  0.50000005  0.10380429  0.19031411  1.0
  S  S7  1  0.50000003  0.89619578  0.80968587  1.0
