# generated using pymatgen
data_CaPtF4
_symmetry_space_group_name_H-M   'P 1'
_cell_length_a   6.07456061
_cell_length_b   5.24203603
_cell_length_c   5.59860725
_cell_angle_alpha   96.35114203
_cell_angle_beta   90.00002692
_cell_angle_gamma   89.99998413
_symmetry_Int_Tables_number   1
_chemical_formula_structural   CaPtF4
_chemical_formula_sum   'Ca2 Pt2 F8'
_cell_volume   177.18266366
_cell_formula_units_Z   2
loop_
 _symmetry_equiv_pos_site_id
 _symmetry_equiv_pos_as_xyz
  1  'x, y, z'
loop_
 _atom_site_type_symbol
 _atom_site_label
 _atom_site_symmetry_multiplicity
 _atom_site_fract_x
 _atom_site_fract_y
 _atom_site_fract_z
 _atom_site_occupancy
  Ca  Ca0  1  0.74846068  0.00000000  0.75000001  1.0
  Ca  Ca1  1  0.25153941  0.00000000  0.24999999  1.0
  Pt  Pt2  1  0.24800443  0.50000017  0.75000011  1.0
  Pt  Pt3  1  0.75199608  0.49999983  0.24999989  1.0
  F  F4  1  0.46089235  0.76675107  0.90007820  1.0
  F  F5  1  0.96557743  0.76514263  0.39994135  1.0
  F  F6  1  0.53910756  0.76675118  0.40007885  1.0
  F  F7  1  0.03442248  0.76514261  0.89994135  1.0
  F  F8  1  0.96557734  0.23485754  0.10005866  1.0
  F  F9  1  0.46089232  0.23324901  0.59992107  1.0
  F  F10  1  0.03442238  0.23485723  0.60005864  1.0
  F  F11  1  0.53910754  0.23324873  0.09992187  1.0
