# generated using pymatgen
data_CaPtSe2
_symmetry_space_group_name_H-M   'P 1'
_cell_length_a   3.83401466
_cell_length_b   6.27421246
_cell_length_c   10.93994728
_cell_angle_alpha   49.11716361
_cell_angle_beta   90.00154926
_cell_angle_gamma   90.00039127
_symmetry_Int_Tables_number   1
_chemical_formula_structural   CaPtSe2
_chemical_formula_sum   'Ca2 Pt2 Se4'
_cell_volume   198.96582631
_cell_formula_units_Z   2
loop_
 _symmetry_equiv_pos_site_id
 _symmetry_equiv_pos_as_xyz
  1  'x, y, z'
loop_
 _atom_site_type_symbol
 _atom_site_label
 _atom_site_symmetry_multiplicity
 _atom_site_fract_x
 _atom_site_fract_y
 _atom_site_fract_z
 _atom_site_occupancy
  Ca  Ca0  1  0.00000187  0.49999991  0.00000002  1.0
  Ca  Ca1  1  0.00000045  0.50000001  0.49999996  1.0
  Pt  Pt2  1  0.49999914  0.00000010  0.49999994  1.0
  Pt  Pt3  1  0.00000006  0.99999992  0.00000007  1.0
  Se  Se4  1  0.00000581  0.69168442  0.67597112  1.0
  Se  Se5  1  0.49998850  0.00078649  0.84661257  1.0
  Se  Se6  1  0.50001173  0.99921340  0.15338756  1.0
  Se  Se7  1  0.99999243  0.30831575  0.32402876  1.0
