# generated using pymatgen
data_CaTe4Se
_symmetry_space_group_name_H-M   'P 1'
_cell_length_a   5.92848725
_cell_length_b   9.05320855
_cell_length_c   8.51413498
_cell_angle_alpha   89.98705844
_cell_angle_beta   89.98243325
_cell_angle_gamma   70.41590751
_symmetry_Int_Tables_number   1
_chemical_formula_structural   CaTe4Se
_chemical_formula_sum   'Ca2 Te8 Se2'
_cell_volume   430.53377619
_cell_formula_units_Z   2
loop_
 _symmetry_equiv_pos_site_id
 _symmetry_equiv_pos_as_xyz
  1  'x, y, z'
loop_
 _atom_site_type_symbol
 _atom_site_label
 _atom_site_symmetry_multiplicity
 _atom_site_fract_x
 _atom_site_fract_y
 _atom_site_fract_z
 _atom_site_occupancy
  Ca  Ca0  1  0.49975804  0.74996154  0.23750324  1.0
  Ca  Ca1  1  0.50024139  0.25003843  0.76249646  1.0
  Te  Te2  1  0.75959745  0.46168889  0.98456567  1.0
  Te  Te3  1  0.24040100  0.53831119  0.01543414  1.0
  Te  Te4  1  0.24039901  0.03832994  0.98455457  1.0
  Te  Te5  1  0.75960237  0.96166975  0.01544530  1.0
  Te  Te6  1  0.77502179  0.96963961  0.52713946  1.0
  Te  Te7  1  0.22497734  0.03036028  0.47286071  1.0
  Te  Te8  1  0.22495439  0.53036785  0.52709821  1.0
  Te  Te9  1  0.77504737  0.46963237  0.47290178  1.0
  Se  Se10  1  0.99995692  0.75001625  0.76378181  1.0
  Se  Se11  1  0.00004293  0.24998391  0.23621865  1.0
