# generated using pymatgen
data_CaYbH4
_symmetry_space_group_name_H-M   'P 1'
_cell_length_a   5.44672670
_cell_length_b   5.43704547
_cell_length_c   5.44116324
_cell_angle_alpha   89.86736142
_cell_angle_beta   90.00000023
_cell_angle_gamma   89.99999959
_symmetry_Int_Tables_number   1
_chemical_formula_structural   CaYbH4
_chemical_formula_sum   'Ca2 Yb2 H8'
_cell_volume   161.13472451
_cell_formula_units_Z   2
loop_
 _symmetry_equiv_pos_site_id
 _symmetry_equiv_pos_as_xyz
  1  'x, y, z'
loop_
 _atom_site_type_symbol
 _atom_site_label
 _atom_site_symmetry_multiplicity
 _atom_site_fract_x
 _atom_site_fract_y
 _atom_site_fract_z
 _atom_site_occupancy
  Ca  Ca0  1  0.74987686  0.00000000  0.75000000  1.0
  Ca  Ca1  1  0.25012315  0.99999999  0.25000000  1.0
  Yb  Yb2  1  0.24972076  0.50000002  0.75000001  1.0
  Yb  Yb3  1  0.75027924  0.49999998  0.24999998  1.0
  H  H4  1  0.50624175  0.74879325  0.99614353  1.0
  H  H5  1  0.99401791  0.74911800  0.50663468  1.0
  H  H6  1  0.49375825  0.74879326  0.49614353  1.0
  H  H7  1  0.00598210  0.74911801  0.00663468  1.0
  H  H8  1  0.99401790  0.25088199  0.99336532  1.0
  H  H9  1  0.50624175  0.25120675  0.50385647  1.0
  H  H10  1  0.00598210  0.25088199  0.49336532  1.0
  H  H11  1  0.49375824  0.25120674  0.00385647  1.0
