# generated using pymatgen
data_CaZnO2
_symmetry_space_group_name_H-M   'P 1'
_cell_length_a   2.85775450
_cell_length_b   3.85636492
_cell_length_c   8.46928769
_cell_angle_alpha   89.97020777
_cell_angle_beta   89.99998808
_cell_angle_gamma   90.00000180
_symmetry_Int_Tables_number   1
_chemical_formula_structural   CaZnO2
_chemical_formula_sum   'Ca2 Zn2 O4'
_cell_volume   93.33614674
_cell_formula_units_Z   2
loop_
 _symmetry_equiv_pos_site_id
 _symmetry_equiv_pos_as_xyz
  1  'x, y, z'
loop_
 _atom_site_type_symbol
 _atom_site_label
 _atom_site_symmetry_multiplicity
 _atom_site_fract_x
 _atom_site_fract_y
 _atom_site_fract_z
 _atom_site_occupancy
  Ca  Ca0  1  0.99999998  0.25035629  0.86061953  1.0
  Ca  Ca1  1  0.00000003  0.74964366  0.13938045  1.0
  Zn  Zn2  1  0.99999996  0.75086080  0.60389611  1.0
  Zn  Zn3  1  0.00000004  0.24913865  0.39610384  1.0
  O  O4  1  0.50000013  0.24879370  0.61196897  1.0
  O  O5  1  0.49999984  0.75120683  0.38803107  1.0
  O  O6  1  0.49999998  0.75012652  0.86338623  1.0
  O  O7  1  0.50000004  0.24987356  0.13661380  1.0
