# generated using pymatgen
data_CdMoSe4
_symmetry_space_group_name_H-M   'P 1'
_cell_length_a   7.95053937
_cell_length_b   6.11404451
_cell_length_c   6.38381044
_cell_angle_alpha   87.95508884
_cell_angle_beta   89.99999872
_cell_angle_gamma   89.99999965
_symmetry_Int_Tables_number   1
_chemical_formula_structural   CdMoSe4
_chemical_formula_sum   'Cd2 Mo2 Se8'
_cell_volume   310.11909561
_cell_formula_units_Z   2
loop_
 _symmetry_equiv_pos_site_id
 _symmetry_equiv_pos_as_xyz
  1  'x, y, z'
loop_
 _atom_site_type_symbol
 _atom_site_label
 _atom_site_symmetry_multiplicity
 _atom_site_fract_x
 _atom_site_fract_y
 _atom_site_fract_z
 _atom_site_occupancy
  Cd  Cd0  1  0.70314822  0.50000002  0.24999999  1.0
  Cd  Cd1  1  0.29685353  0.50000001  0.75000000  1.0
  Mo  Mo2  1  0.17845247  0.00000002  0.25000000  1.0
  Mo  Mo3  1  0.82154595  0.99999999  0.75000000  1.0
  Se  Se4  1  0.08199136  0.78374094  0.94221834  1.0
  Se  Se5  1  0.08199135  0.21625906  0.55778167  1.0
  Se  Se6  1  0.91800778  0.21625989  0.05777855  1.0
  Se  Se7  1  0.91800780  0.78374007  0.44222146  1.0
  Se  Se8  1  0.37458660  0.73533414  0.38287558  1.0
  Se  Se9  1  0.37458657  0.26466585  0.11712442  1.0
  Se  Se10  1  0.62541418  0.26466413  0.61712412  1.0
  Se  Se11  1  0.62541418  0.73533589  0.88287586  1.0
