# generated using pymatgen
data_CeAuN2
_symmetry_space_group_name_H-M   'P 1'
_cell_length_a   3.77599529
_cell_length_b   6.53586408
_cell_length_c   6.30497874
_cell_angle_alpha   69.69111007
_cell_angle_beta   89.99999876
_cell_angle_gamma   89.99999985
_symmetry_Int_Tables_number   1
_chemical_formula_structural   CeAuN2
_chemical_formula_sum   'Ce2 Au2 N4'
_cell_volume   145.92999319
_cell_formula_units_Z   2
loop_
 _symmetry_equiv_pos_site_id
 _symmetry_equiv_pos_as_xyz
  1  'x, y, z'
loop_
 _atom_site_type_symbol
 _atom_site_label
 _atom_site_symmetry_multiplicity
 _atom_site_fract_x
 _atom_site_fract_y
 _atom_site_fract_z
 _atom_site_occupancy
  Ce  Ce0  1  0.00000000  0.00000008  0.49999982  1.0
  Ce  Ce1  1  0.50000000  0.49999993  0.50000013  1.0
  Au  Au2  1  0.00000000  0.49999984  0.00000064  1.0
  Au  Au3  1  0.50000000  0.99999993  0.00000001  1.0
  N  N4  1  0.50000000  0.11130490  0.66555881  1.0
  N  N5  1  0.00000000  0.38872147  0.33447696  1.0
  N  N6  1  0.50000001  0.88869500  0.33444095  1.0
  N  N7  1  0.99999999  0.61127884  0.66552268  1.0
