# generated using pymatgen
data_CoBiTe4
_symmetry_space_group_name_H-M   'P 1'
_cell_length_a   6.43540811
_cell_length_b   7.06176373
_cell_length_c   7.96493264
_cell_angle_alpha   90.00000035
_cell_angle_beta   90.00000069
_cell_angle_gamma   86.31098499
_symmetry_Int_Tables_number   1
_chemical_formula_structural   CoBiTe4
_chemical_formula_sum   'Co2 Bi2 Te8'
_cell_volume   361.21899504
_cell_formula_units_Z   2
loop_
 _symmetry_equiv_pos_site_id
 _symmetry_equiv_pos_as_xyz
  1  'x, y, z'
loop_
 _atom_site_type_symbol
 _atom_site_label
 _atom_site_symmetry_multiplicity
 _atom_site_fract_x
 _atom_site_fract_y
 _atom_site_fract_z
 _atom_site_occupancy
  Co  Co0  1  0.49999999  0.75000000  0.37032638  1.0
  Co  Co1  1  0.50000001  0.25000000  0.62967296  1.0
  Bi  Bi2  1  0.99999999  0.75000000  0.84669968  1.0
  Bi  Bi3  1  0.00000001  0.25000000  0.15330325  1.0
  Te  Te4  1  0.66615622  0.43519130  0.87336204  1.0
  Te  Te5  1  0.33384970  0.56480388  0.12663621  1.0
  Te  Te6  1  0.33384379  0.06480868  0.87336205  1.0
  Te  Te7  1  0.66615030  0.93519614  0.12663621  1.0
  Te  Te8  1  0.74119595  0.95429460  0.55298932  1.0
  Te  Te9  1  0.25880399  0.04570519  0.44701129  1.0
  Te  Te10  1  0.25880404  0.54570539  0.55298933  1.0
  Te  Te11  1  0.74119601  0.45429482  0.44701128  1.0
