# generated using pymatgen
data_CoRuBr4
_symmetry_space_group_name_H-M   'P 1'
_cell_length_a   5.83772544
_cell_length_b   6.51723717
_cell_length_c   7.31426206
_cell_angle_alpha   90.00002578
_cell_angle_beta   89.99997609
_cell_angle_gamma   88.37805559
_symmetry_Int_Tables_number   1
_chemical_formula_structural   CoRuBr4
_chemical_formula_sum   'Co2 Ru2 Br8'
_cell_volume   278.16576059
_cell_formula_units_Z   2
loop_
 _symmetry_equiv_pos_site_id
 _symmetry_equiv_pos_as_xyz
  1  'x, y, z'
loop_
 _atom_site_type_symbol
 _atom_site_label
 _atom_site_symmetry_multiplicity
 _atom_site_fract_x
 _atom_site_fract_y
 _atom_site_fract_z
 _atom_site_occupancy
  Co  Co0  1  0.50000101  0.25000065  0.63282489  1.0
  Co  Co1  1  0.49999898  0.74999937  0.36717492  1.0
  Ru  Ru2  1  0.99999993  0.24999985  0.13537545  1.0
  Ru  Ru3  1  0.00000004  0.75000016  0.86462512  1.0
  Br  Br4  1  0.74557860  0.42136123  0.38298099  1.0
  Br  Br5  1  0.25442156  0.07863902  0.38298126  1.0
  Br  Br6  1  0.25441619  0.57863822  0.61701640  1.0
  Br  Br7  1  0.74558366  0.92136154  0.61701611  1.0
  Br  Br8  1  0.76223289  0.92769094  0.11046493  1.0
  Br  Br9  1  0.23776713  0.57230931  0.11046456  1.0
  Br  Br10  1  0.23776458  0.07230863  0.88953753  1.0
  Br  Br11  1  0.76223543  0.42769107  0.88953784  1.0
