# generated using pymatgen
data_CrCl2F
_symmetry_space_group_name_H-M   'P 1'
_cell_length_a   4.30876652
_cell_length_b   4.31152697
_cell_length_c   3.99791944
_cell_angle_alpha   94.77274738
_cell_angle_beta   85.26389536
_cell_angle_gamma   114.40196790
_symmetry_Int_Tables_number   1
_chemical_formula_structural   CrCl2F
_chemical_formula_sum   'Cr1 Cl2 F1'
_cell_volume   67.30652320
_cell_formula_units_Z   1
loop_
 _symmetry_equiv_pos_site_id
 _symmetry_equiv_pos_as_xyz
  1  'x, y, z'
loop_
 _atom_site_type_symbol
 _atom_site_label
 _atom_site_symmetry_multiplicity
 _atom_site_fract_x
 _atom_site_fract_y
 _atom_site_fract_z
 _atom_site_occupancy
  Cr  Cr0  1  0.99999868  0.00000158  0.49999854  1.0
  Cl  Cl1  1  0.33132859  0.66868741  0.31666652  1.0
  Cl  Cl2  1  0.66867324  0.33131068  0.68333385  1.0
  F  F3  1  0.99999949  0.00000034  0.00000108  1.0
