# generated using pymatgen
data_Cs2BrCl
_symmetry_space_group_name_H-M   'P 1'
_cell_length_a   9.00876333
_cell_length_b   7.29908531
_cell_length_c   7.29951742
_cell_angle_alpha   89.54203301
_cell_angle_beta   114.86840235
_cell_angle_gamma   114.86657879
_symmetry_Int_Tables_number   1
_chemical_formula_structural   Cs2BrCl
_chemical_formula_sum   'Cs4 Br2 Cl2'
_cell_volume   386.70451104
_cell_formula_units_Z   2
loop_
 _symmetry_equiv_pos_site_id
 _symmetry_equiv_pos_as_xyz
  1  'x, y, z'
loop_
 _atom_site_type_symbol
 _atom_site_label
 _atom_site_symmetry_multiplicity
 _atom_site_fract_x
 _atom_site_fract_y
 _atom_site_fract_z
 _atom_site_occupancy
  Cs  Cs0  1  0.26354345  0.14024189  0.37104766  1.0
  Cs  Cs1  1  0.23645632  0.62895137  0.85975909  1.0
  Cs  Cs2  1  0.76354373  0.37104865  0.14024111  1.0
  Cs  Cs3  1  0.73645655  0.85975807  0.62895232  1.0
  Br  Br4  1  0.24999958  0.13644213  0.86355840  1.0
  Br  Br5  1  0.75000037  0.86355797  0.13644133  1.0
  Cl  Cl6  1  0.75000037  0.36484133  0.63516002  1.0
  Cl  Cl7  1  0.24999962  0.63515860  0.36484006  1.0
