# generated using pymatgen
data_Cs2ClF
_symmetry_space_group_name_H-M   'P 1'
_cell_length_a   8.02465688
_cell_length_b   6.83183724
_cell_length_c   6.83182218
_cell_angle_alpha   90.23464545
_cell_angle_beta   114.60498928
_cell_angle_gamma   114.60490884
_symmetry_Int_Tables_number   1
_chemical_formula_structural   Cs2ClF
_chemical_formula_sum   'Cs4 Cl2 F2'
_cell_volume   302.39556943
_cell_formula_units_Z   2
loop_
 _symmetry_equiv_pos_site_id
 _symmetry_equiv_pos_as_xyz
  1  'x, y, z'
loop_
 _atom_site_type_symbol
 _atom_site_label
 _atom_site_symmetry_multiplicity
 _atom_site_fract_x
 _atom_site_fract_y
 _atom_site_fract_z
 _atom_site_occupancy
  Cs  Cs0  1  0.29982657  0.15182647  0.39529092  1.0
  Cs  Cs1  1  0.20017338  0.60470885  0.84817399  1.0
  Cs  Cs2  1  0.79982674  0.39529123  0.15182686  1.0
  Cs  Cs3  1  0.70017336  0.84817335  0.60470899  1.0
  Cl  Cl4  1  0.24999990  0.12993579  0.87006423  1.0
  Cl  Cl5  1  0.75000004  0.87006414  0.12993567  1.0
  F  F6  1  0.75000004  0.38091352  0.61908671  1.0
  F  F7  1  0.24999997  0.61908666  0.38091262  1.0
