# generated using pymatgen
data_CsAuCl4
_symmetry_space_group_name_H-M   'P 1'
_cell_length_a   5.70696995
_cell_length_b   9.96126103
_cell_length_c   9.87887123
_cell_angle_alpha   94.76077975
_cell_angle_beta   89.99976907
_cell_angle_gamma   89.99984704
_symmetry_Int_Tables_number   1
_chemical_formula_structural   CsAuCl4
_chemical_formula_sum   'Cs2 Au2 Cl8'
_cell_volume   559.66259666
_cell_formula_units_Z   2
loop_
 _symmetry_equiv_pos_site_id
 _symmetry_equiv_pos_as_xyz
  1  'x, y, z'
loop_
 _atom_site_type_symbol
 _atom_site_label
 _atom_site_symmetry_multiplicity
 _atom_site_fract_x
 _atom_site_fract_y
 _atom_site_fract_z
 _atom_site_occupancy
  Cs  Cs0  1  0.53437049  0.24999992  0.74999928  1.0
  Cs  Cs1  1  0.46562945  0.75000013  0.25000078  1.0
  Au  Au2  1  0.00000073  0.49999967  0.50000123  1.0
  Au  Au3  1  0.99999980  0.00000015  0.99999959  1.0
  Cl  Cl4  1  0.72984838  0.67010118  0.55641521  1.0
  Cl  Cl5  1  0.72985063  0.82989838  0.94358617  1.0
  Cl  Cl6  1  0.96452529  0.96574641  0.22944693  1.0
  Cl  Cl7  1  0.96452662  0.53425459  0.27055302  1.0
  Cl  Cl8  1  0.03547430  0.03425346  0.77055330  1.0
  Cl  Cl9  1  0.03547364  0.46574548  0.72944597  1.0
  Cl  Cl10  1  0.27014863  0.17010163  0.05641382  1.0
  Cl  Cl11  1  0.27015203  0.32989901  0.44358470  1.0
