# generated using pymatgen
data_CsBiO2
_symmetry_space_group_name_H-M   'P 1'
_cell_length_a   7.65388368
_cell_length_b   7.65391987
_cell_length_c   15.61161253
_cell_angle_alpha   73.79918522
_cell_angle_beta   73.80119857
_cell_angle_gamma   90.95213880
_symmetry_Int_Tables_number   1
_chemical_formula_structural   CsBiO2
_chemical_formula_sum   'Cs8 Bi8 O16'
_cell_volume   838.94307331
_cell_formula_units_Z   8
loop_
 _symmetry_equiv_pos_site_id
 _symmetry_equiv_pos_as_xyz
  1  'x, y, z'
loop_
 _atom_site_type_symbol
 _atom_site_label
 _atom_site_symmetry_multiplicity
 _atom_site_fract_x
 _atom_site_fract_y
 _atom_site_fract_z
 _atom_site_occupancy
  Cs  Cs0  1  0.77939836  0.34009898  0.11587818  1.0
  Cs  Cs1  1  0.77369451  0.84397649  0.11631619  1.0
  Cs  Cs2  1  0.22630540  0.15602467  0.88368394  1.0
  Cs  Cs3  1  0.15600761  0.22629997  0.38368625  1.0
  Cs  Cs4  1  0.65989080  0.22061162  0.38411487  1.0
  Cs  Cs5  1  0.22060115  0.65990236  0.88412152  1.0
  Cs  Cs6  1  0.34010978  0.77938766  0.61588485  1.0
  Cs  Cs7  1  0.84399277  0.77369968  0.61631370  1.0
  Bi  Bi8  1  0.25695981  0.07139966  0.13890810  1.0
  Bi  Bi9  1  0.78065062  0.40969774  0.85066016  1.0
  Bi  Bi10  1  0.92859301  0.74303485  0.36109187  1.0
  Bi  Bi11  1  0.59031418  0.21934575  0.64933727  1.0
  Bi  Bi12  1  0.74304001  0.92860074  0.86109197  1.0
  Bi  Bi13  1  0.07140733  0.25696471  0.63890817  1.0
  Bi  Bi14  1  0.40968601  0.78065348  0.35066274  1.0
  Bi  Bi15  1  0.21934925  0.59030266  0.14933958  1.0
  O  O16  1  0.99713205  0.00286128  0.24999580  1.0
  O  O17  1  0.20213081  0.86753885  0.06755313  1.0
  O  O18  1  0.13244906  0.79785692  0.43244833  1.0
  O  O19  1  0.05296102  0.46130575  0.76929781  1.0
  O  O20  1  0.86755091  0.20214221  0.56755175  1.0
  O  O21  1  0.17733120  0.30749258  0.05766429  1.0
  O  O22  1  0.79786902  0.13246194  0.93244689  1.0
  O  O23  1  0.82266835  0.69250794  0.94233608  1.0
  O  O24  1  0.65615032  0.34385254  0.74999687  1.0
  O  O25  1  0.30749365  0.17732563  0.55766982  1.0
  O  O26  1  0.46127492  0.05296679  0.26930057  1.0
  O  O27  1  0.53872519  0.94703263  0.73069943  1.0
  O  O28  1  0.00286815  0.99713873  0.75000445  1.0
  O  O29  1  0.34384963  0.65614692  0.25000307  1.0
  O  O30  1  0.94703871  0.53869478  0.23070212  1.0
  O  O31  1  0.69250643  0.82267349  0.44233025  1.0
