# generated using pymatgen
data_CsIrSe2
_symmetry_space_group_name_H-M   'P 1'
_cell_length_a   6.69418395
_cell_length_b   7.27560110
_cell_length_c   7.23246213
_cell_angle_alpha   122.27362640
_cell_angle_beta   101.00223908
_cell_angle_gamma   100.52224240
_symmetry_Int_Tables_number   1
_chemical_formula_structural   CsIrSe2
_chemical_formula_sum   'Cs2 Ir2 Se4'
_cell_volume   274.64136868
_cell_formula_units_Z   2
loop_
 _symmetry_equiv_pos_site_id
 _symmetry_equiv_pos_as_xyz
  1  'x, y, z'
loop_
 _atom_site_type_symbol
 _atom_site_label
 _atom_site_symmetry_multiplicity
 _atom_site_fract_x
 _atom_site_fract_y
 _atom_site_fract_z
 _atom_site_occupancy
  Cs  Cs0  1  0.73061767  0.33680725  0.69200096  1.0
  Cs  Cs1  1  0.26928490  0.66321635  0.30781195  1.0
  Ir  Ir2  1  0.20617110  0.99485740  0.00060484  1.0
  Ir  Ir3  1  0.79378813  0.00525251  0.99927027  1.0
  Se  Se4  1  0.10357909  0.17219918  0.34298259  1.0
  Se  Se5  1  0.42127430  0.74225006  0.85840491  1.0
  Se  Se6  1  0.57894715  0.25799850  0.14197871  1.0
  Se  Se7  1  0.89633768  0.82741876  0.65694577  1.0
