# generated using pymatgen
data_CsNbCl4
_symmetry_space_group_name_H-M   'P 1'
_cell_length_a   8.89505848
_cell_length_b   7.30401477
_cell_length_c   6.81522720
_cell_angle_alpha   92.05651867
_cell_angle_beta   89.99989787
_cell_angle_gamma   90.00018265
_symmetry_Int_Tables_number   1
_chemical_formula_structural   CsNbCl4
_chemical_formula_sum   'Cs2 Nb2 Cl8'
_cell_volume   442.49765765
_cell_formula_units_Z   2
loop_
 _symmetry_equiv_pos_site_id
 _symmetry_equiv_pos_as_xyz
  1  'x, y, z'
loop_
 _atom_site_type_symbol
 _atom_site_label
 _atom_site_symmetry_multiplicity
 _atom_site_fract_x
 _atom_site_fract_y
 _atom_site_fract_z
 _atom_site_occupancy
  Cs  Cs0  1  0.15580922  0.00000017  0.75000006  1.0
  Cs  Cs1  1  0.84419117  0.99999959  0.25000001  1.0
  Nb  Nb2  1  0.61781344  0.49999760  0.74999828  1.0
  Nb  Nb3  1  0.38218886  0.50000265  0.25000131  1.0
  Cl  Cl4  1  0.81091300  0.27928143  0.84937109  1.0
  Cl  Cl5  1  0.41199309  0.31904937  0.91974174  1.0
  Cl  Cl6  1  0.41199189  0.68094978  0.58025664  1.0
  Cl  Cl7  1  0.81091309  0.72071831  0.65062951  1.0
  Cl  Cl8  1  0.18908920  0.27928260  0.34937061  1.0
  Cl  Cl9  1  0.58800489  0.31905271  0.41973290  1.0
  Cl  Cl10  1  0.58800342  0.68094836  0.08026874  1.0
  Cl  Cl11  1  0.18908873  0.72071745  0.15062910  1.0
