# generated using pymatgen
data_CsRbH2
_symmetry_space_group_name_H-M   'P 1'
_cell_length_a   7.71669041
_cell_length_b   6.31959661
_cell_length_c   6.31959581
_cell_angle_alpha   89.84479188
_cell_angle_beta   114.33645455
_cell_angle_gamma   114.33645219
_symmetry_Int_Tables_number   1
_chemical_formula_structural   CsRbH2
_chemical_formula_sum   'Cs2 Rb2 H4'
_cell_volume   250.61034964
_cell_formula_units_Z   2
loop_
 _symmetry_equiv_pos_site_id
 _symmetry_equiv_pos_as_xyz
  1  'x, y, z'
loop_
 _atom_site_type_symbol
 _atom_site_label
 _atom_site_symmetry_multiplicity
 _atom_site_fract_x
 _atom_site_fract_y
 _atom_site_fract_z
 _atom_site_occupancy
  Cs  Cs0  1  0.75000011  0.36981565  0.63018431  1.0
  Cs  Cs1  1  0.24999986  0.63018421  0.36981586  1.0
  Rb  Rb2  1  0.25000015  0.12965440  0.87034529  1.0
  Rb  Rb3  1  0.74999990  0.87034562  0.12965489  1.0
  H  H4  1  0.22813988  0.11960610  0.36290788  1.0
  H  H5  1  0.27186020  0.63709199  0.88039399  1.0
  H  H6  1  0.72813976  0.36290811  0.11960593  1.0
  H  H7  1  0.77186013  0.88039391  0.63709185  1.0
