# generated using pymatgen
data_CsSbS2
_symmetry_space_group_name_H-M   'P 1'
_cell_length_a   7.02752835
_cell_length_b   7.22810988
_cell_length_c   7.22811026
_cell_angle_alpha   97.69008556
_cell_angle_beta   108.88719067
_cell_angle_gamma   108.88719255
_symmetry_Int_Tables_number   1
_chemical_formula_structural   CsSbS2
_chemical_formula_sum   'Cs2 Sb2 S4'
_cell_volume   316.79499974
_cell_formula_units_Z   2
loop_
 _symmetry_equiv_pos_site_id
 _symmetry_equiv_pos_as_xyz
  1  'x, y, z'
loop_
 _atom_site_type_symbol
 _atom_site_label
 _atom_site_symmetry_multiplicity
 _atom_site_fract_x
 _atom_site_fract_y
 _atom_site_fract_z
 _atom_site_occupancy
  Cs  Cs0  1  0.75000001  0.34498079  0.65501916  1.0
  Cs  Cs1  1  0.25000002  0.65501919  0.34498082  1.0
  Sb  Sb2  1  0.74999997  0.92720284  0.07279718  1.0
  Sb  Sb3  1  0.25000000  0.07279718  0.92720283  1.0
  S  S4  1  0.70696677  0.25325573  0.12608997  1.0
  S  S5  1  0.79303325  0.87390999  0.74674430  1.0
  S  S6  1  0.29303324  0.74674430  0.87390999  1.0
  S  S7  1  0.20696674  0.12608998  0.25325573  1.0
