# generated using pymatgen
data_CsSmS2
_symmetry_space_group_name_H-M   'P 1'
_cell_length_a   7.45387634
_cell_length_b   7.14975742
_cell_length_c   7.14972260
_cell_angle_alpha   94.51985346
_cell_angle_beta   111.65013079
_cell_angle_gamma   111.65040401
_symmetry_Int_Tables_number   1
_chemical_formula_structural   CsSmS2
_chemical_formula_sum   'Cs2 Sm2 S4'
_cell_volume   318.81859152
_cell_formula_units_Z   2
loop_
 _symmetry_equiv_pos_site_id
 _symmetry_equiv_pos_as_xyz
  1  'x, y, z'
loop_
 _atom_site_type_symbol
 _atom_site_label
 _atom_site_symmetry_multiplicity
 _atom_site_fract_x
 _atom_site_fract_y
 _atom_site_fract_z
 _atom_site_occupancy
  Cs  Cs0  1  0.74999986  0.38197978  0.61801995  1.0
  Cs  Cs1  1  0.25000016  0.61802035  0.38197993  1.0
  Sm  Sm2  1  0.25000072  0.04483806  0.95516207  1.0
  Sm  Sm3  1  0.74999927  0.95516171  0.04483812  1.0
  S  S4  1  0.17643865  0.07545610  0.29228234  1.0
  S  S5  1  0.32356296  0.70772140  0.92454427  1.0
  S  S6  1  0.67643700  0.29227866  0.07545573  1.0
  S  S7  1  0.82356138  0.92454394  0.70771759  1.0
