# generated using pymatgen
data_CsTlBr2
_symmetry_space_group_name_H-M   'P 1'
_cell_length_a   6.03555875
_cell_length_b   6.03555861
_cell_length_c   6.03555862
_cell_angle_alpha   59.99936948
_cell_angle_beta   59.99936711
_cell_angle_gamma   59.99936615
_symmetry_Int_Tables_number   1
_chemical_formula_structural   CsTlBr2
_chemical_formula_sum   'Cs1 Tl1 Br2'
_cell_volume   155.46448789
_cell_formula_units_Z   1
loop_
 _symmetry_equiv_pos_site_id
 _symmetry_equiv_pos_as_xyz
  1  'x, y, z'
loop_
 _atom_site_type_symbol
 _atom_site_label
 _atom_site_symmetry_multiplicity
 _atom_site_fract_x
 _atom_site_fract_y
 _atom_site_fract_z
 _atom_site_occupancy
  Cs  Cs0  1  0.50000000  0.50000000  0.50000000  1.0
  Tl  Tl1  1  0.00000000  0.00000000  0.00000000  1.0
  Br  Br2  1  0.75000004  0.74999998  0.74999998  1.0
  Br  Br3  1  0.24999996  0.25000002  0.25000002  1.0
