# generated using pymatgen
data_CsVBr4
_symmetry_space_group_name_H-M   'P 1'
_cell_length_a   9.56628913
_cell_length_b   7.47931593
_cell_length_c   6.68051208
_cell_angle_alpha   97.28427440
_cell_angle_beta   89.99955095
_cell_angle_gamma   89.98230678
_symmetry_Int_Tables_number   1
_chemical_formula_structural   CsVBr4
_chemical_formula_sum   'Cs2 V2 Br8'
_cell_volume   474.12824013
_cell_formula_units_Z   2
loop_
 _symmetry_equiv_pos_site_id
 _symmetry_equiv_pos_as_xyz
  1  'x, y, z'
loop_
 _atom_site_type_symbol
 _atom_site_label
 _atom_site_symmetry_multiplicity
 _atom_site_fract_x
 _atom_site_fract_y
 _atom_site_fract_z
 _atom_site_occupancy
  Cs  Cs0  1  0.34911911  0.50912134  0.76147043  1.0
  Cs  Cs1  1  0.65089289  0.50907105  0.26148000  1.0
  V  V2  1  0.88340067  0.00251333  0.74626430  1.0
  V  V3  1  0.11657127  0.00241342  0.24630948  1.0
  Br  Br4  1  0.07345222  0.81039621  0.90355506  1.0
  Br  Br5  1  0.92649974  0.81036413  0.40356103  1.0
  Br  Br6  1  0.70282387  0.77478978  0.83053098  1.0
  Br  Br7  1  0.29719014  0.77471185  0.33050724  1.0
  Br  Br8  1  0.69401303  0.21167858  0.66328284  1.0
  Br  Br9  1  0.30603701  0.21169466  0.16319553  1.0
  Br  Br10  1  0.07977968  0.19163961  0.59494533  1.0
  Br  Br11  1  0.92022038  0.19160604  0.09489780  1.0
