# generated using pymatgen
data_Cu2IBr
_symmetry_space_group_name_H-M   'P 1'
_cell_length_a   3.95776938
_cell_length_b   6.60177740
_cell_length_c   7.82094788
_cell_angle_alpha   92.44520889
_cell_angle_beta   89.99999722
_cell_angle_gamma   89.99998606
_symmetry_Int_Tables_number   1
_chemical_formula_structural   Cu2IBr
_chemical_formula_sum   'Cu4 I2 Br2'
_cell_volume   204.16210621
_cell_formula_units_Z   2
loop_
 _symmetry_equiv_pos_site_id
 _symmetry_equiv_pos_as_xyz
  1  'x, y, z'
loop_
 _atom_site_type_symbol
 _atom_site_label
 _atom_site_symmetry_multiplicity
 _atom_site_fract_x
 _atom_site_fract_y
 _atom_site_fract_z
 _atom_site_occupancy
  Cu  Cu0  1  0.49999970  0.17191035  0.19663021  1.0
  Cu  Cu1  1  0.99999979  0.24343196  0.69747270  1.0
  Cu  Cu2  1  0.99999955  0.75655916  0.30255541  1.0
  Cu  Cu3  1  0.49999981  0.82808467  0.80341414  1.0
  I  I4  1  0.00000000  0.00002135  0.99998640  1.0
  I  I5  1  0.50000226  0.99998451  0.49999706  1.0
  Br  Br6  1  0.49999937  0.53234911  0.24358934  1.0
  Br  Br7  1  0.49999952  0.46765890  0.75635475  1.0
