# generated using pymatgen
data_CuHBr2
_symmetry_space_group_name_H-M   'P 1'
_cell_length_a   4.06723480
_cell_length_b   7.14475007
_cell_length_c   7.72833052
_cell_angle_alpha   102.58817102
_cell_angle_beta   78.98992906
_cell_angle_gamma   71.08276803
_symmetry_Int_Tables_number   1
_chemical_formula_structural   CuHBr2
_chemical_formula_sum   'Cu2 H2 Br4'
_cell_volume   198.84341132
_cell_formula_units_Z   2
loop_
 _symmetry_equiv_pos_site_id
 _symmetry_equiv_pos_as_xyz
  1  'x, y, z'
loop_
 _atom_site_type_symbol
 _atom_site_label
 _atom_site_symmetry_multiplicity
 _atom_site_fract_x
 _atom_site_fract_y
 _atom_site_fract_z
 _atom_site_occupancy
  Cu  Cu0  1  0.43631839  0.61738007  0.12885021  1.0
  Cu  Cu1  1  0.63168885  0.29663452  0.83076554  1.0
  H  H2  1  0.04829718  0.00476637  0.01214490  1.0
  H  H3  1  0.49371413  0.99098743  0.47934962  1.0
  Br  Br4  1  0.57524668  0.26505131  0.13620439  1.0
  Br  Br5  1  0.21842272  0.27114604  0.64756663  1.0
  Br  Br6  1  0.73095170  0.75600107  0.36362959  1.0
  Br  Br7  1  0.36536035  0.79803318  0.90148913  1.0
