# generated using pymatgen
data_CuPbCl4
_symmetry_space_group_name_H-M   'P 1'
_cell_length_a   6.31095722
_cell_length_b   7.45241957
_cell_length_c   7.20869971
_cell_angle_alpha   89.99999837
_cell_angle_beta   90.00000167
_cell_angle_gamma   100.56478264
_symmetry_Int_Tables_number   1
_chemical_formula_structural   CuPbCl4
_chemical_formula_sum   'Cu2 Pb2 Cl8'
_cell_volume   333.29154339
_cell_formula_units_Z   2
loop_
 _symmetry_equiv_pos_site_id
 _symmetry_equiv_pos_as_xyz
  1  'x, y, z'
loop_
 _atom_site_type_symbol
 _atom_site_label
 _atom_site_symmetry_multiplicity
 _atom_site_fract_x
 _atom_site_fract_y
 _atom_site_fract_z
 _atom_site_occupancy
  Cu  Cu0  1  0.49999996  0.25000003  0.64809210  1.0
  Cu  Cu1  1  0.50000003  0.74999996  0.35190482  1.0
  Pb  Pb2  1  0.00000000  0.25000001  0.18889512  1.0
  Pb  Pb3  1  0.00000000  0.75000000  0.81110621  1.0
  Cl  Cl4  1  0.27798170  0.09506730  0.42395282  1.0
  Cl  Cl5  1  0.72201828  0.40493271  0.42395280  1.0
  Cl  Cl6  1  0.72199487  0.90492245  0.57603207  1.0
  Cl  Cl7  1  0.27800516  0.59507756  0.57603208  1.0
  Cl  Cl8  1  0.26580213  0.11333363  0.87789904  1.0
  Cl  Cl9  1  0.73419783  0.38666638  0.87789904  1.0
  Cl  Cl10  1  0.73417834  0.88665793  0.12211695  1.0
  Cl  Cl11  1  0.26582170  0.61334205  0.12211695  1.0
