# generated using pymatgen
data_CuWS4
_symmetry_space_group_name_H-M   'P 1'
_cell_length_a   5.39386172
_cell_length_b   5.95551799
_cell_length_c   7.12040179
_cell_angle_alpha   90.00000851
_cell_angle_beta   90.00003102
_cell_angle_gamma   88.81572525
_symmetry_Int_Tables_number   1
_chemical_formula_structural   CuWS4
_chemical_formula_sum   'Cu2 W2 S8'
_cell_volume   228.68152095
_cell_formula_units_Z   2
loop_
 _symmetry_equiv_pos_site_id
 _symmetry_equiv_pos_as_xyz
  1  'x, y, z'
loop_
 _atom_site_type_symbol
 _atom_site_label
 _atom_site_symmetry_multiplicity
 _atom_site_fract_x
 _atom_site_fract_y
 _atom_site_fract_z
 _atom_site_occupancy
  Cu  Cu0  1  0.49999992  0.25000000  0.67278188  1.0
  Cu  Cu1  1  0.50000006  0.75000000  0.32721828  1.0
  W  W2  1  0.99999991  0.24999996  0.17131437  1.0
  W  W3  1  0.00000009  0.75000003  0.82868484  1.0
  S  S4  1  0.26718367  0.08705039  0.37744367  1.0
  S  S5  1  0.73281633  0.41294965  0.37744362  1.0
  S  S6  1  0.73281760  0.91294702  0.62255374  1.0
  S  S7  1  0.26718241  0.58705294  0.62255378  1.0
  S  S8  1  0.23912456  0.07180790  0.89772952  1.0
  S  S9  1  0.76087561  0.42819206  0.89772938  1.0
  S  S10  1  0.76087269  0.92818950  0.10227339  1.0
  S  S11  1  0.23912715  0.57181054  0.10227352  1.0
