# generated using pymatgen
data_DyLuN2
_symmetry_space_group_name_H-M   'P 1'
_cell_length_a   3.47745919
_cell_length_b   6.02207502
_cell_length_c   6.11175408
_cell_angle_alpha   79.74120715
_cell_angle_beta   89.99901305
_cell_angle_gamma   89.99127867
_symmetry_Int_Tables_number   1
_chemical_formula_structural   DyLuN2
_chemical_formula_sum   'Dy2 Lu2 N4'
_cell_volume   125.94330109
_cell_formula_units_Z   2
loop_
 _symmetry_equiv_pos_site_id
 _symmetry_equiv_pos_as_xyz
  1  'x, y, z'
loop_
 _atom_site_type_symbol
 _atom_site_label
 _atom_site_symmetry_multiplicity
 _atom_site_fract_x
 _atom_site_fract_y
 _atom_site_fract_z
 _atom_site_occupancy
  Dy  Dy0  1  0.99999999  0.99999999  0.99999993  1.0
  Dy  Dy1  1  0.49999981  0.00000005  0.49999992  1.0
  Lu  Lu2  1  0.50007052  0.55738064  0.23847889  1.0
  Lu  Lu3  1  0.49992953  0.44261934  0.76152118  1.0
  N  N4  1  0.49996403  0.23775416  0.10297633  1.0
  N  N5  1  0.99996068  0.23902884  0.63635007  1.0
  N  N6  1  0.00003940  0.76097117  0.36364993  1.0
  N  N7  1  0.50003604  0.76224581  0.89702375  1.0
