# generated using pymatgen
data_DyPN2
_symmetry_space_group_name_H-M   'P 1'
_cell_length_a   3.71225363
_cell_length_b   5.58920621
_cell_length_c   6.23686793
_cell_angle_alpha   100.37928056
_cell_angle_beta   90.27517280
_cell_angle_gamma   72.32699257
_symmetry_Int_Tables_number   1
_chemical_formula_structural   DyPN2
_chemical_formula_sum   'Dy2 P2 N4'
_cell_volume   121.10906120
_cell_formula_units_Z   2
loop_
 _symmetry_equiv_pos_site_id
 _symmetry_equiv_pos_as_xyz
  1  'x, y, z'
loop_
 _atom_site_type_symbol
 _atom_site_label
 _atom_site_symmetry_multiplicity
 _atom_site_fract_x
 _atom_site_fract_y
 _atom_site_fract_z
 _atom_site_occupancy
  Dy  Dy0  1  0.99999771  0.00000725  0.99999211  1.0
  Dy  Dy1  1  0.50000763  0.99999945  0.50000541  1.0
  P  P2  1  0.41702827  0.50829658  0.31342217  1.0
  P  P3  1  0.58296174  0.49169955  0.68658066  1.0
  N  N4  1  0.40004639  0.22664339  0.20028158  1.0
  N  N5  1  0.90580715  0.22675343  0.70488705  1.0
  N  N6  1  0.09418712  0.77323518  0.29510939  1.0
  N  N7  1  0.59996399  0.77336518  0.79972164  1.0
