# generated using pymatgen
data_DyTiN2
_symmetry_space_group_name_H-M   'P 1'
_cell_length_a   3.19234867
_cell_length_b   3.19238609
_cell_length_c   5.65090664
_cell_angle_alpha   90.00107673
_cell_angle_beta   90.00000010
_cell_angle_gamma   119.99961280
_symmetry_Int_Tables_number   1
_chemical_formula_structural   DyTiN2
_chemical_formula_sum   'Dy1 Ti1 N2'
_cell_volume   49.87422811
_cell_formula_units_Z   1
loop_
 _symmetry_equiv_pos_site_id
 _symmetry_equiv_pos_as_xyz
  1  'x, y, z'
loop_
 _atom_site_type_symbol
 _atom_site_label
 _atom_site_symmetry_multiplicity
 _atom_site_fract_x
 _atom_site_fract_y
 _atom_site_fract_z
 _atom_site_occupancy
  Dy  Dy0  1  0.00000000  0.00000000  0.50000000  1.0
  Ti  Ti1  1  0.00000000  0.00000000  0.00000000  1.0
  N  N2  1  0.33333333  0.66666667  0.78450426  1.0
  N  N3  1  0.66666667  0.33333333  0.21549574  1.0
