# generated using pymatgen
data_DyVP2
_symmetry_space_group_name_H-M   'P 1'
_cell_length_a   4.62756811
_cell_length_b   4.62756832
_cell_length_c   4.62756865
_cell_angle_alpha   60.00000004
_cell_angle_beta   59.99999272
_cell_angle_gamma   60.00000275
_symmetry_Int_Tables_number   1
_chemical_formula_structural   DyVP2
_chemical_formula_sum   'Dy1 V1 P2'
_cell_volume   70.07183916
_cell_formula_units_Z   1
loop_
 _symmetry_equiv_pos_site_id
 _symmetry_equiv_pos_as_xyz
  1  'x, y, z'
loop_
 _atom_site_type_symbol
 _atom_site_label
 _atom_site_symmetry_multiplicity
 _atom_site_fract_x
 _atom_site_fract_y
 _atom_site_fract_z
 _atom_site_occupancy
  Dy  Dy0  1  0.00000000  0.00000002  0.00000000  1.0
  V  V1  1  0.50000000  0.49999996  0.50000002  1.0
  P  P2  1  0.24999999  0.25000000  0.24999999  1.0
  P  P3  1  0.75000001  0.75000002  0.74999999  1.0
