# generated using pymatgen
data_ErAuO2
_symmetry_space_group_name_H-M   'P 1'
_cell_length_a   7.07405614
_cell_length_b   6.90690243
_cell_length_c   7.08855762
_cell_angle_alpha   106.57216704
_cell_angle_beta   130.70724334
_cell_angle_gamma   49.98408390
_symmetry_Int_Tables_number   1
_chemical_formula_structural   ErAuO2
_chemical_formula_sum   'Er2 Au2 O4'
_cell_volume   195.63587662
_cell_formula_units_Z   2
loop_
 _symmetry_equiv_pos_site_id
 _symmetry_equiv_pos_as_xyz
  1  'x, y, z'
loop_
 _atom_site_type_symbol
 _atom_site_label
 _atom_site_symmetry_multiplicity
 _atom_site_fract_x
 _atom_site_fract_y
 _atom_site_fract_z
 _atom_site_occupancy
  Er  Er0  1  0.99989028  0.49996921  0.49986941  1.0
  Er  Er1  1  0.00018203  0.99999687  0.00018052  1.0
  Au  Au2  1  0.99986931  0.24997096  0.74984790  1.0
  Au  Au3  1  0.00025695  0.74995258  0.25021160  1.0
  O  O4  1  0.49997694  0.18758006  0.68773807  1.0
  O  O5  1  0.87682534  0.31154696  0.18832089  1.0
  O  O6  1  0.12283013  0.68860103  0.81147717  1.0
  O  O7  1  0.50016901  0.81238232  0.31235445  1.0
