# generated using pymatgen
data_ErHgTe2
_symmetry_space_group_name_H-M   'P 1'
_cell_length_a   7.76234515
_cell_length_b   8.46853468
_cell_length_c   9.80065275
_cell_angle_alpha   106.37630791
_cell_angle_beta   103.59356090
_cell_angle_gamma   111.90356400
_symmetry_Int_Tables_number   1
_chemical_formula_structural   ErHgTe2
_chemical_formula_sum   'Er4 Hg4 Te8'
_cell_volume   529.95923264
_cell_formula_units_Z   4
loop_
 _symmetry_equiv_pos_site_id
 _symmetry_equiv_pos_as_xyz
  1  'x, y, z'
loop_
 _atom_site_type_symbol
 _atom_site_label
 _atom_site_symmetry_multiplicity
 _atom_site_fract_x
 _atom_site_fract_y
 _atom_site_fract_z
 _atom_site_occupancy
  Er  Er0  1  0.31121155  0.56235936  0.62218778  1.0
  Er  Er1  1  0.68878725  0.43764092  0.37781060  1.0
  Er  Er2  1  0.05729653  0.30821867  0.11607762  1.0
  Er  Er3  1  0.94270329  0.69178023  0.88392192  1.0
  Hg  Hg4  1  0.44175615  0.19180920  0.88272174  1.0
  Hg  Hg5  1  0.18017327  0.93032217  0.35972775  1.0
  Hg  Hg6  1  0.55824441  0.80819082  0.11727875  1.0
  Hg  Hg7  1  0.81982828  0.06967821  0.64027452  1.0
  Te  Te8  1  0.07324345  0.78366263  0.63009227  1.0
  Te  Te9  1  0.55593955  0.34764184  0.63153130  1.0
  Te  Te10  1  0.92675531  0.21633734  0.36990759  1.0
  Te  Te11  1  0.44406007  0.65235926  0.36846766  1.0
  Te  Te12  1  0.82251565  0.53980097  0.12212803  1.0
  Te  Te13  1  0.70126508  0.91726527  0.87878574  1.0
  Te  Te14  1  0.17748582  0.46019943  0.87787200  1.0
  Te  Te15  1  0.29873433  0.08273370  0.12121473  1.0
