# generated using pymatgen
data_ErHgCl4
_symmetry_space_group_name_H-M   'P 1'
_cell_length_a   8.51797190
_cell_length_b   7.13572351
_cell_length_c   6.94376621
_cell_angle_alpha   76.35883950
_cell_angle_beta   89.99483195
_cell_angle_gamma   89.99922262
_symmetry_Int_Tables_number   1
_chemical_formula_structural   ErHgCl4
_chemical_formula_sum   'Er2 Hg2 Cl8'
_cell_volume   410.14984101
_cell_formula_units_Z   2
loop_
 _symmetry_equiv_pos_site_id
 _symmetry_equiv_pos_as_xyz
  1  'x, y, z'
loop_
 _atom_site_type_symbol
 _atom_site_label
 _atom_site_symmetry_multiplicity
 _atom_site_fract_x
 _atom_site_fract_y
 _atom_site_fract_z
 _atom_site_occupancy
  Er  Er0  1  0.62585156  0.50000017  0.74999863  1.0
  Er  Er1  1  0.37415127  0.50000129  0.25000095  1.0
  Hg  Hg2  1  0.16592561  0.99999568  0.74999859  1.0
  Hg  Hg3  1  0.83410723  0.00000508  0.25000152  1.0
  Cl  Cl4  1  0.86262725  0.29914485  0.92317802  1.0
  Cl  Cl5  1  0.41792052  0.28024462  0.99397081  1.0
  Cl  Cl6  1  0.41793773  0.71974504  0.50603510  1.0
  Cl  Cl7  1  0.86263968  0.70087427  0.57680607  1.0
  Cl  Cl8  1  0.13734028  0.29914903  0.42316626  1.0
  Cl  Cl9  1  0.58206276  0.28024876  0.49397067  1.0
  Cl  Cl10  1  0.58208198  0.71975961  0.00602391  1.0
  Cl  Cl11  1  0.13735412  0.70083161  0.07684948  1.0
