# generated using pymatgen
data_ErHO
_symmetry_space_group_name_H-M   'P 1'
_cell_length_a   3.72426099
_cell_length_b   3.72426103
_cell_length_c   3.72426471
_cell_angle_alpha   59.99998763
_cell_angle_beta   59.99996219
_cell_angle_gamma   59.99997019
_symmetry_Int_Tables_number   1
_chemical_formula_structural   ErHO
_chemical_formula_sum   'Er1 H1 O1'
_cell_volume   36.52628489
_cell_formula_units_Z   1
loop_
 _symmetry_equiv_pos_site_id
 _symmetry_equiv_pos_as_xyz
  1  'x, y, z'
loop_
 _atom_site_type_symbol
 _atom_site_label
 _atom_site_symmetry_multiplicity
 _atom_site_fract_x
 _atom_site_fract_y
 _atom_site_fract_z
 _atom_site_occupancy
  Er  Er0  1  0.99999908  0.00000275  0.99999820  1.0
  H  H1  1  0.75000066  0.74999882  0.75000094  1.0
  O  O2  1  0.25000026  0.24999843  0.25000086  1.0
