# generated using pymatgen
data_ErSb2P
_symmetry_space_group_name_H-M   'P 1'
_cell_length_a   5.21159933
_cell_length_b   5.21160259
_cell_length_c   5.21160264
_cell_angle_alpha   59.99998112
_cell_angle_beta   60.00002212
_cell_angle_gamma   59.99999497
_symmetry_Int_Tables_number   1
_chemical_formula_structural   ErSb2P
_chemical_formula_sum   'Er1 Sb2 P1'
_cell_volume   100.09182375
_cell_formula_units_Z   1
loop_
 _symmetry_equiv_pos_site_id
 _symmetry_equiv_pos_as_xyz
  1  'x, y, z'
loop_
 _atom_site_type_symbol
 _atom_site_label
 _atom_site_symmetry_multiplicity
 _atom_site_fract_x
 _atom_site_fract_y
 _atom_site_fract_z
 _atom_site_occupancy
  Er  Er0  1  0.99999942  0.99999955  0.00000026  1.0
  Sb  Sb1  1  0.25000031  0.25000003  0.25000002  1.0
  Sb  Sb2  1  0.75000022  0.75000013  0.74999990  1.0
  P  P3  1  0.50000005  0.50000029  0.49999983  1.0
