# generated using pymatgen
data_EuMgO2
_symmetry_space_group_name_H-M   'P 1'
_cell_length_a   3.24002980
_cell_length_b   3.24002969
_cell_length_c   5.87673605
_cell_angle_alpha   89.99996329
_cell_angle_beta   90.00003263
_cell_angle_gamma   120.00008211
_symmetry_Int_Tables_number   1
_chemical_formula_structural   EuMgO2
_chemical_formula_sum   'Eu1 Mg1 O2'
_cell_volume   53.42745066
_cell_formula_units_Z   1
loop_
 _symmetry_equiv_pos_site_id
 _symmetry_equiv_pos_as_xyz
  1  'x, y, z'
loop_
 _atom_site_type_symbol
 _atom_site_label
 _atom_site_symmetry_multiplicity
 _atom_site_fract_x
 _atom_site_fract_y
 _atom_site_fract_z
 _atom_site_occupancy
  Eu  Eu0  1  0.99999996  0.00000000  0.00000001  1.0
  Mg  Mg1  1  0.00000002  0.00000000  0.50000001  1.0
  O  O2  1  0.33333333  0.66666667  0.28751247  1.0
  O  O3  1  0.66666667  0.33333333  0.71248751  1.0
