# generated using pymatgen
data_GaAsS4
_symmetry_space_group_name_H-M   'P 1'
_cell_length_a   6.39958341
_cell_length_b   8.07452928
_cell_length_c   6.78972500
_cell_angle_alpha   89.99997315
_cell_angle_beta   89.99999071
_cell_angle_gamma   103.42555121
_symmetry_Int_Tables_number   1
_chemical_formula_structural   GaAsS4
_chemical_formula_sum   'Ga2 As2 S8'
_cell_volume   341.26182559
_cell_formula_units_Z   2
loop_
 _symmetry_equiv_pos_site_id
 _symmetry_equiv_pos_as_xyz
  1  'x, y, z'
loop_
 _atom_site_type_symbol
 _atom_site_label
 _atom_site_symmetry_multiplicity
 _atom_site_fract_x
 _atom_site_fract_y
 _atom_site_fract_z
 _atom_site_occupancy
  Ga  Ga0  1  0.49999965  0.74999998  0.30570631  1.0
  Ga  Ga1  1  0.50000032  0.25000002  0.69429363  1.0
  As  As2  1  0.99999983  0.74999985  0.73766565  1.0
  As  As3  1  0.00000024  0.25000012  0.26233423  1.0
  S  S4  1  0.85687561  0.92426445  0.94439383  1.0
  S  S5  1  0.14312429  0.07573536  0.05560663  1.0
  S  S6  1  0.14312443  0.57573520  0.94439313  1.0
  S  S7  1  0.85687574  0.42426454  0.05560662  1.0
  S  S8  1  0.72154682  0.60147535  0.58500119  1.0
  S  S9  1  0.27845300  0.39852477  0.41499869  1.0
  S  S10  1  0.27845259  0.89852492  0.58500119  1.0
  S  S11  1  0.72154749  0.10147543  0.41499888  1.0
