# generated using pymatgen
data_GaBrCl2
_symmetry_space_group_name_H-M   'P 1'
_cell_length_a   3.84045333
_cell_length_b   9.84007431
_cell_length_c   10.81879522
_cell_angle_alpha   77.21120061
_cell_angle_beta   67.23894544
_cell_angle_gamma   107.37812540
_symmetry_Int_Tables_number   1
_chemical_formula_structural   GaBrCl2
_chemical_formula_sum   'Ga2 Br2 Cl4'
_cell_volume   332.38759293
_cell_formula_units_Z   2
loop_
 _symmetry_equiv_pos_site_id
 _symmetry_equiv_pos_as_xyz
  1  'x, y, z'
loop_
 _atom_site_type_symbol
 _atom_site_label
 _atom_site_symmetry_multiplicity
 _atom_site_fract_x
 _atom_site_fract_y
 _atom_site_fract_z
 _atom_site_occupancy
  Ga  Ga0  1  0.99075319  0.81277498  0.30474122  1.0
  Ga  Ga1  1  0.00901895  0.18724061  0.69530485  1.0
  Br  Br2  1  0.50189151  0.69991404  0.21548636  1.0
  Br  Br3  1  0.49800298  0.30001149  0.78447809  1.0
  Cl  Cl4  1  0.30887259  0.05845364  0.18882704  1.0
  Cl  Cl5  1  0.69127396  0.94161395  0.81116372  1.0
  Cl  Cl6  1  0.65754879  0.71474916  0.53774331  1.0
  Cl  Cl7  1  0.34263804  0.28524212  0.46225540  1.0
