# generated using pymatgen
data_GaHF4
_symmetry_space_group_name_H-M   'P 1'
_cell_length_a   5.24818551
_cell_length_b   6.61794121
_cell_length_c   11.10333898
_cell_angle_alpha   58.15374534
_cell_angle_beta   90.00000622
_cell_angle_gamma   90.00002997
_symmetry_Int_Tables_number   1
_chemical_formula_structural   GaHF4
_chemical_formula_sum   'Ga4 H4 F16'
_cell_volume   327.59117747
_cell_formula_units_Z   4
loop_
 _symmetry_equiv_pos_site_id
 _symmetry_equiv_pos_as_xyz
  1  'x, y, z'
loop_
 _atom_site_type_symbol
 _atom_site_label
 _atom_site_symmetry_multiplicity
 _atom_site_fract_x
 _atom_site_fract_y
 _atom_site_fract_z
 _atom_site_occupancy
  Ga  Ga0  1  0.75054271  0.38267646  0.50114736  1.0
  Ga  Ga1  1  0.75054238  0.61732358  0.99885281  1.0
  Ga  Ga2  1  0.24945754  0.61732347  0.49885268  1.0
  Ga  Ga3  1  0.24945746  0.38267656  0.00114720  1.0
  H  H4  1  0.12602538  0.99999992  0.24999973  1.0
  H  H5  1  0.87397464  0.00000027  0.75000002  1.0
  H  H6  1  0.61945700  0.49999928  0.25000041  1.0
  H  H7  1  0.38054307  0.50000056  0.74999961  1.0
  F  F8  1  0.06546178  0.50659467  0.39065582  1.0
  F  F9  1  0.06546181  0.49340482  0.10934411  1.0
  F  F10  1  0.93453816  0.49340516  0.60934426  1.0
  F  F11  1  0.93453826  0.50659514  0.89065591  1.0
  F  F12  1  0.43084243  0.69324055  0.89632535  1.0
  F  F13  1  0.43084226  0.30675896  0.60367517  1.0
  F  F14  1  0.56915738  0.30675945  0.10367469  1.0
  F  F15  1  0.56915769  0.69324098  0.39632485  1.0
  F  F16  1  0.62484678  0.32407896  0.36016195  1.0
  F  F17  1  0.62484660  0.67592021  0.13983823  1.0
  F  F18  1  0.37515324  0.67592094  0.63983805  1.0
  F  F19  1  0.37515335  0.32408004  0.86016176  1.0
  F  F20  1  0.12809612  0.93477000  0.36987958  1.0
  F  F21  1  0.12809618  0.06523076  0.13011976  1.0
  F  F22  1  0.87190398  0.06522991  0.63012039  1.0
  F  F23  1  0.87190378  0.93476934  0.86988027  1.0
