# generated using pymatgen
data_GdTiAs2
_symmetry_space_group_name_H-M   'P 1'
_cell_length_a   6.83021734
_cell_length_b   3.92946232
_cell_length_c   3.92430360
_cell_angle_alpha   59.93888599
_cell_angle_beta   73.35481577
_cell_angle_gamma   73.29124235
_symmetry_Int_Tables_number   1
_chemical_formula_structural   GdTiAs2
_chemical_formula_sum   'Gd1 Ti1 As2'
_cell_volume   86.01050564
_cell_formula_units_Z   1
loop_
 _symmetry_equiv_pos_site_id
 _symmetry_equiv_pos_as_xyz
  1  'x, y, z'
loop_
 _atom_site_type_symbol
 _atom_site_label
 _atom_site_symmetry_multiplicity
 _atom_site_fract_x
 _atom_site_fract_y
 _atom_site_fract_z
 _atom_site_occupancy
  Gd  Gd0  1  0.00000000  0.00000000  0.00000000  1.0
  Ti  Ti1  1  0.50000000  0.50000000  0.50000000  1.0
  As  As2  1  0.28138367  0.23940536  0.23970333  1.0
  As  As3  1  0.71861633  0.76059464  0.76029667  1.0
