# generated using pymatgen
data_GePbSe4
_symmetry_space_group_name_H-M   'P 1'
_cell_length_a   6.37181953
_cell_length_b   8.35105834
_cell_length_c   7.39739232
_cell_angle_alpha   89.99999997
_cell_angle_beta   89.99999761
_cell_angle_gamma   99.59829137
_symmetry_Int_Tables_number   1
_chemical_formula_structural   GePbSe4
_chemical_formula_sum   'Ge2 Pb2 Se8'
_cell_volume   388.11550794
_cell_formula_units_Z   2
loop_
 _symmetry_equiv_pos_site_id
 _symmetry_equiv_pos_as_xyz
  1  'x, y, z'
loop_
 _atom_site_type_symbol
 _atom_site_label
 _atom_site_symmetry_multiplicity
 _atom_site_fract_x
 _atom_site_fract_y
 _atom_site_fract_z
 _atom_site_occupancy
  Ge  Ge0  1  0.00000003  0.74999999  0.74110785  1.0
  Ge  Ge1  1  0.00000000  0.25000000  0.25889238  1.0
  Pb  Pb2  1  0.50000013  0.74999999  0.29996736  1.0
  Pb  Pb3  1  0.49999990  0.24999997  0.70003241  1.0
  Se  Se4  1  0.83408912  0.93107235  0.93713615  1.0
  Se  Se5  1  0.16591098  0.06892801  0.06286403  1.0
  Se  Se6  1  0.16591100  0.56892759  0.93713605  1.0
  Se  Se7  1  0.83408910  0.43107208  0.06286412  1.0
  Se  Se8  1  0.73085396  0.58660819  0.57088317  1.0
  Se  Se9  1  0.26914628  0.41339186  0.42911681  1.0
  Se  Se10  1  0.26914578  0.91339187  0.57088282  1.0
  Se  Se11  1  0.73085372  0.08660811  0.42911686  1.0
