# generated using pymatgen
data_GePbS2
_symmetry_space_group_name_H-M   'P 1'
_cell_length_a   4.16219599
_cell_length_b   7.21034320
_cell_length_c   8.45943380
_cell_angle_alpha   73.50822817
_cell_angle_beta   90.00000287
_cell_angle_gamma   90.00000106
_symmetry_Int_Tables_number   1
_chemical_formula_structural   GePbS2
_chemical_formula_sum   'Ge2 Pb2 S4'
_cell_volume   243.43061334
_cell_formula_units_Z   2
loop_
 _symmetry_equiv_pos_site_id
 _symmetry_equiv_pos_as_xyz
  1  'x, y, z'
loop_
 _atom_site_type_symbol
 _atom_site_label
 _atom_site_symmetry_multiplicity
 _atom_site_fract_x
 _atom_site_fract_y
 _atom_site_fract_z
 _atom_site_occupancy
  Ge  Ge0  1  0.50000002  0.00000001  0.49999999  1.0
  Ge  Ge1  1  0.00000002  0.50000001  0.49999999  1.0
  Pb  Pb2  1  0.49999999  0.50000000  0.99999999  1.0
  Pb  Pb3  1  0.00000000  0.99999999  0.00000000  1.0
  S  S4  1  0.00000000  0.59813041  0.20606565  1.0
  S  S5  1  0.99999998  0.40186959  0.79393436  1.0
  S  S6  1  0.50000000  0.09772471  0.20540008  1.0
  S  S7  1  0.49999998  0.90227529  0.79459995  1.0
