# generated using pymatgen
data_GeRhCl4
_symmetry_space_group_name_H-M   'P 1'
_cell_length_a   7.07488514
_cell_length_b   5.96305656
_cell_length_c   6.77887896
_cell_angle_alpha   84.42753111
_cell_angle_beta   89.99999843
_cell_angle_gamma   90.00002394
_symmetry_Int_Tables_number   1
_chemical_formula_structural   GeRhCl4
_chemical_formula_sum   'Ge2 Rh2 Cl8'
_cell_volume   284.63541612
_cell_formula_units_Z   2
loop_
 _symmetry_equiv_pos_site_id
 _symmetry_equiv_pos_as_xyz
  1  'x, y, z'
loop_
 _atom_site_type_symbol
 _atom_site_label
 _atom_site_symmetry_multiplicity
 _atom_site_fract_x
 _atom_site_fract_y
 _atom_site_fract_z
 _atom_site_occupancy
  Ge  Ge0  1  0.33471515  0.50000032  0.74999984  1.0
  Ge  Ge1  1  0.66529112  0.49999965  0.25000006  1.0
  Rh  Rh2  1  0.86777181  0.00000020  0.74999979  1.0
  Rh  Rh3  1  0.13222590  0.99999983  0.25000002  1.0
  Cl  Cl4  1  0.10522580  0.22349019  0.57731956  1.0
  Cl  Cl5  1  0.89475851  0.22342334  0.07728527  1.0
  Cl  Cl6  1  0.62687813  0.24220811  0.59734676  1.0
  Cl  Cl7  1  0.37313605  0.24220497  0.09734109  1.0
  Cl  Cl8  1  0.62687778  0.75779258  0.90265314  1.0
  Cl  Cl9  1  0.37313591  0.75779464  0.40265921  1.0
  Cl  Cl10  1  0.10522557  0.77650989  0.92268029  1.0
  Cl  Cl11  1  0.89475829  0.77657628  0.42271497  1.0
