# generated using pymatgen
data_HfFeAs2
_symmetry_space_group_name_H-M   'P 1'
_cell_length_a   3.92959433
_cell_length_b   5.35065774
_cell_length_c   10.68920197
_cell_angle_alpha   75.57086706
_cell_angle_beta   89.99999273
_cell_angle_gamma   90.00000621
_symmetry_Int_Tables_number   1
_chemical_formula_structural   HfFeAs2
_chemical_formula_sum   'Hf3 Fe3 As6'
_cell_volume   217.66085464
_cell_formula_units_Z   3
loop_
 _symmetry_equiv_pos_site_id
 _symmetry_equiv_pos_as_xyz
  1  'x, y, z'
loop_
 _atom_site_type_symbol
 _atom_site_label
 _atom_site_symmetry_multiplicity
 _atom_site_fract_x
 _atom_site_fract_y
 _atom_site_fract_z
 _atom_site_occupancy
  Hf  Hf0  1  0.00000000  0.37291112  0.25429229  1.0
  Hf  Hf1  1  0.00000001  0.62708885  0.74570772  1.0
  Hf  Hf2  1  0.99999996  0.00000010  0.99999992  1.0
  Fe  Fe3  1  0.99999943  0.49999998  0.50000002  1.0
  Fe  Fe4  1  0.99999993  0.50000002  0.00000000  1.0
  Fe  Fe5  1  0.00000065  0.99999998  0.50000001  1.0
  As  As6  1  0.49999991  0.26685380  0.09152378  1.0
  As  As7  1  0.49999996  0.71391164  0.56310967  1.0
  As  As8  1  0.49999998  0.73314619  0.90847623  1.0
  As  As9  1  0.50000002  0.28608834  0.43689034  1.0
  As  As10  1  0.00000007  0.15678270  0.70305002  1.0
  As  As11  1  0.00000008  0.84321727  0.29695001  1.0
