# generated using pymatgen
data_HgSbCl4
_symmetry_space_group_name_H-M   'P 1'
_cell_length_a   5.18498504
_cell_length_b   10.18321425
_cell_length_c   23.48280915
_cell_angle_alpha   65.09056342
_cell_angle_beta   89.99912530
_cell_angle_gamma   90.00011001
_symmetry_Int_Tables_number   1
_chemical_formula_structural   HgSbCl4
_chemical_formula_sum   'Hg4 Sb4 Cl16'
_cell_volume   1124.54694393
_cell_formula_units_Z   4
loop_
 _symmetry_equiv_pos_site_id
 _symmetry_equiv_pos_as_xyz
  1  'x, y, z'
loop_
 _atom_site_type_symbol
 _atom_site_label
 _atom_site_symmetry_multiplicity
 _atom_site_fract_x
 _atom_site_fract_y
 _atom_site_fract_z
 _atom_site_occupancy
  Hg  Hg0  1  0.86926930  0.48742297  0.38942301  1.0
  Hg  Hg1  1  0.13071955  0.48743708  0.88941616  1.0
  Hg  Hg2  1  0.13072621  0.51256610  0.61058484  1.0
  Hg  Hg3  1  0.86928243  0.51256994  0.11057810  1.0
  Sb  Sb4  1  0.22159941  0.03434984  0.40502618  1.0
  Sb  Sb5  1  0.77840390  0.03435528  0.90502216  1.0
  Sb  Sb6  1  0.22159164  0.96565874  0.09497990  1.0
  Sb  Sb7  1  0.77840991  0.96564979  0.59497573  1.0
  Cl  Cl8  1  0.31342598  0.91157499  0.34115916  1.0
  Cl  Cl9  1  0.36951959  0.47959967  0.39081866  1.0
  Cl  Cl10  1  0.92087587  0.14646129  0.02664771  1.0
  Cl  Cl11  1  0.63049586  0.52039050  0.60918476  1.0
  Cl  Cl12  1  0.10231586  0.80511520  0.66135097  1.0
  Cl  Cl13  1  0.07910468  0.14644347  0.52664531  1.0
  Cl  Cl14  1  0.63048147  0.47960941  0.89081220  1.0
  Cl  Cl15  1  0.31339811  0.08842821  0.15883349  1.0
  Cl  Cl16  1  0.68659120  0.91157005  0.84116659  1.0
  Cl  Cl17  1  0.89768879  0.80511794  0.16134711  1.0
  Cl  Cl18  1  0.07911017  0.85354778  0.97335796  1.0
  Cl  Cl19  1  0.92088947  0.85354298  0.47335175  1.0
  Cl  Cl20  1  0.89768108  0.19488927  0.33865058  1.0
  Cl  Cl21  1  0.36952316  0.52038571  0.10918759  1.0
  Cl  Cl22  1  0.10231196  0.19487866  0.83864952  1.0
  Cl  Cl23  1  0.68658441  0.08843511  0.65883055  1.0
