# generated using pymatgen
data_HoTeF
_symmetry_space_group_name_H-M   'P 1'
_cell_length_a   4.91296020
_cell_length_b   4.91295980
_cell_length_c   4.91296005
_cell_angle_alpha   59.99994323
_cell_angle_beta   59.99995646
_cell_angle_gamma   59.99992541
_symmetry_Int_Tables_number   1
_chemical_formula_structural   HoTeF
_chemical_formula_sum   'Ho1 Te1 F1'
_cell_volume   83.85213353
_cell_formula_units_Z   1
loop_
 _symmetry_equiv_pos_site_id
 _symmetry_equiv_pos_as_xyz
  1  'x, y, z'
loop_
 _atom_site_type_symbol
 _atom_site_label
 _atom_site_symmetry_multiplicity
 _atom_site_fract_x
 _atom_site_fract_y
 _atom_site_fract_z
 _atom_site_occupancy
  Ho  Ho0  1  0.00000005  0.00000009  0.99999993  1.0
  Te  Te1  1  0.24999995  0.24999999  0.24999999  1.0
  F  F2  1  0.50000000  0.49999992  0.50000008  1.0
