# generated using pymatgen
data_InAgS2
_symmetry_space_group_name_H-M   'P 1'
_cell_length_a   3.93722282
_cell_length_b   6.82119518
_cell_length_c   7.86359684
_cell_angle_alpha   73.42683658
_cell_angle_beta   89.99999510
_cell_angle_gamma   89.99999312
_symmetry_Int_Tables_number   1
_chemical_formula_structural   InAgS2
_chemical_formula_sum   'In2 Ag2 S4'
_cell_volume   202.41561753
_cell_formula_units_Z   2
loop_
 _symmetry_equiv_pos_site_id
 _symmetry_equiv_pos_as_xyz
  1  'x, y, z'
loop_
 _atom_site_type_symbol
 _atom_site_label
 _atom_site_symmetry_multiplicity
 _atom_site_fract_x
 _atom_site_fract_y
 _atom_site_fract_z
 _atom_site_occupancy
  In  In0  1  0.50000002  0.50000000  0.00000000  1.0
  In  In1  1  0.99999997  0.00000001  0.00000000  1.0
  Ag  Ag2  1  0.50000001  0.00000000  0.50000001  1.0
  Ag  Ag3  1  0.00000001  0.50000000  0.50000000  1.0
  S  S4  1  0.99999997  0.60547112  0.18538340  1.0
  S  S5  1  0.00000006  0.39452887  0.81461659  1.0
  S  S6  1  0.49999999  0.10597831  0.18564980  1.0
  S  S7  1  0.49999997  0.89402169  0.81435021  1.0
