# generated using pymatgen
data_InBiTe4
_symmetry_space_group_name_H-M   'P 1'
_cell_length_a   6.68598749
_cell_length_b   8.13308588
_cell_length_c   8.00739706
_cell_angle_alpha   90.18017952
_cell_angle_beta   90.41353152
_cell_angle_gamma   83.44110174
_symmetry_Int_Tables_number   1
_chemical_formula_structural   InBiTe4
_chemical_formula_sum   'In2 Bi2 Te8'
_cell_volume   432.56160573
_cell_formula_units_Z   2
loop_
 _symmetry_equiv_pos_site_id
 _symmetry_equiv_pos_as_xyz
  1  'x, y, z'
loop_
 _atom_site_type_symbol
 _atom_site_label
 _atom_site_symmetry_multiplicity
 _atom_site_fract_x
 _atom_site_fract_y
 _atom_site_fract_z
 _atom_site_occupancy
  In  In0  1  0.49852922  0.75035942  0.40149151  1.0
  In  In1  1  0.50147079  0.24964058  0.59850849  1.0
  Bi  Bi2  1  0.99980845  0.74676045  0.88360950  1.0
  Bi  Bi3  1  0.00019155  0.25323956  0.11639051  1.0
  Te  Te4  1  0.66980679  0.47977187  0.88204297  1.0
  Te  Te5  1  0.33019322  0.52022814  0.11795702  1.0
  Te  Te6  1  0.33436137  0.02349455  0.88236414  1.0
  Te  Te7  1  0.66563863  0.97650546  0.11763585  1.0
  Te  Te8  1  0.80088661  0.93882996  0.57235239  1.0
  Te  Te9  1  0.19911340  0.06117004  0.42764760  1.0
  Te  Te10  1  0.20015381  0.56134108  0.57242861  1.0
  Te  Te11  1  0.79984618  0.43865891  0.42757140  1.0
