# generated using pymatgen
data_InTeF
_symmetry_space_group_name_H-M   'P 1'
_cell_length_a   4.71639075
_cell_length_b   4.71639006
_cell_length_c   4.71638797
_cell_angle_alpha   59.99988402
_cell_angle_beta   59.99984683
_cell_angle_gamma   59.99986769
_symmetry_Int_Tables_number   1
_chemical_formula_structural   InTeF
_chemical_formula_sum   'In1 Te1 F1'
_cell_volume   74.18441935
_cell_formula_units_Z   1
loop_
 _symmetry_equiv_pos_site_id
 _symmetry_equiv_pos_as_xyz
  1  'x, y, z'
loop_
 _atom_site_type_symbol
 _atom_site_label
 _atom_site_symmetry_multiplicity
 _atom_site_fract_x
 _atom_site_fract_y
 _atom_site_fract_z
 _atom_site_occupancy
  In  In0  1  0.24999989  0.25000004  0.25000016  1.0
  Te  Te1  1  0.00000002  0.99999992  0.00000004  1.0
  F  F2  1  0.75000010  0.75000004  0.74999980  1.0
