# generated using pymatgen
data_Ir5CO8
_symmetry_space_group_name_H-M   'P 1'
_cell_length_a   3.18810154
_cell_length_b   7.35317424
_cell_length_c   7.35244360
_cell_angle_alpha   81.63549510
_cell_angle_beta   77.47611857
_cell_angle_gamma   77.46981209
_symmetry_Int_Tables_number   1
_chemical_formula_structural   Ir5CO8
_chemical_formula_sum   'Ir5 C1 O8'
_cell_volume   163.37361234
_cell_formula_units_Z   1
loop_
 _symmetry_equiv_pos_site_id
 _symmetry_equiv_pos_as_xyz
  1  'x, y, z'
loop_
 _atom_site_type_symbol
 _atom_site_label
 _atom_site_symmetry_multiplicity
 _atom_site_fract_x
 _atom_site_fract_y
 _atom_site_fract_z
 _atom_site_occupancy
  Ir  Ir0  1  0.80787240  0.70531068  0.67903340  1.0
  Ir  Ir1  1  0.19212094  0.29469566  0.32097347  1.0
  Ir  Ir2  1  0.46772497  0.69443654  0.37016829  1.0
  Ir  Ir3  1  0.53227580  0.30556493  0.62982499  1.0
  Ir  Ir4  1  0.99999903  0.00000258  0.99999914  1.0
  C  C5  1  0.00000343  0.49998937  0.50000994  1.0
  O  O6  1  0.00898524  0.19895397  0.78310654  1.0
  O  O7  1  0.99102051  0.80104217  0.21688388  1.0
  O  O8  1  0.33209115  0.54590832  0.78999939  1.0
  O  O9  1  0.66790975  0.45409223  0.20999894  1.0
  O  O10  1  0.72032685  0.13205166  0.42731919  1.0
  O  O11  1  0.27967288  0.86794835  0.57268158  1.0
  O  O12  1  0.38173012  0.13212064  0.10457713  1.0
  O  O13  1  0.61826693  0.86788290  0.89542412  1.0
