# generated using pymatgen
data_IrAuCl4
_symmetry_space_group_name_H-M   'P 1'
_cell_length_a   3.61334552
_cell_length_b   10.00128901
_cell_length_c   9.62117548
_cell_angle_alpha   103.44209157
_cell_angle_beta   89.99177262
_cell_angle_gamma   89.99670225
_symmetry_Int_Tables_number   1
_chemical_formula_structural   IrAuCl4
_chemical_formula_sum   'Ir2 Au2 Cl8'
_cell_volume   338.16624880
_cell_formula_units_Z   2
loop_
 _symmetry_equiv_pos_site_id
 _symmetry_equiv_pos_as_xyz
  1  'x, y, z'
loop_
 _atom_site_type_symbol
 _atom_site_label
 _atom_site_symmetry_multiplicity
 _atom_site_fract_x
 _atom_site_fract_y
 _atom_site_fract_z
 _atom_site_occupancy
  Ir  Ir0  1  0.14025473  0.24997164  0.74995730  1.0
  Ir  Ir1  1  0.85974572  0.75002836  0.25004270  1.0
  Au  Au2  1  0.00000000  0.49999987  0.49999970  1.0
  Au  Au3  1  0.99999995  0.00000014  0.00000029  1.0
  Cl  Cl4  1  0.85414867  0.72352052  0.49022200  1.0
  Cl  Cl5  1  0.85427820  0.77651621  0.00987046  1.0
  Cl  Cl6  1  0.35838791  0.90938317  0.30983447  1.0
  Cl  Cl7  1  0.35843395  0.59066570  0.19022367  1.0
  Cl  Cl8  1  0.64161267  0.09061670  0.69016582  1.0
  Cl  Cl9  1  0.64156660  0.40933442  0.80977606  1.0
  Cl  Cl10  1  0.14572098  0.22348397  0.99012964  1.0
  Cl  Cl11  1  0.14585062  0.27647931  0.50977789  1.0
