# generated using pymatgen
data_K2IF
_symmetry_space_group_name_H-M   'P 1'
_cell_length_a   7.28412445
_cell_length_b   8.00178350
_cell_length_c   12.36794281
_cell_angle_alpha   108.87361222
_cell_angle_beta   99.84867016
_cell_angle_gamma   90.00065132
_symmetry_Int_Tables_number   1
_chemical_formula_structural   K2IF
_chemical_formula_sum   'K8 I4 F4'
_cell_volume   670.88179312
_cell_formula_units_Z   4
loop_
 _symmetry_equiv_pos_site_id
 _symmetry_equiv_pos_as_xyz
  1  'x, y, z'
loop_
 _atom_site_type_symbol
 _atom_site_label
 _atom_site_symmetry_multiplicity
 _atom_site_fract_x
 _atom_site_fract_y
 _atom_site_fract_z
 _atom_site_occupancy
  K  K0  1  0.20759596  0.15158426  0.80014081  1.0
  K  K1  1  0.29239664  0.35146219  0.19984486  1.0
  K  K2  1  0.79240404  0.84841576  0.19985919  1.0
  K  K3  1  0.70760337  0.64853778  0.80015514  1.0
  K  K4  1  0.19789064  0.13631981  0.47324533  1.0
  K  K5  1  0.30210905  0.66306881  0.52675376  1.0
  K  K6  1  0.80210936  0.86368019  0.52675468  1.0
  K  K7  1  0.69789095  0.33693119  0.47324624  1.0
  I  I8  1  0.30560040  0.81131890  0.22245317  1.0
  I  I9  1  0.19440731  0.58886260  0.77755521  1.0
  I  I10  1  0.69439960  0.18868110  0.77754682  1.0
  I  I11  1  0.80559270  0.41113741  0.22244479  1.0
  F  F12  1  0.14858389  0.95055035  0.59958995  1.0
  F  F13  1  0.35141387  0.35093482  0.40039576  1.0
  F  F14  1  0.85141611  0.04944966  0.40041006  1.0
  F  F15  1  0.64858613  0.64906517  0.59960423  1.0
