# generated using pymatgen
data_K5SbF8
_symmetry_space_group_name_H-M   'P 1'
_cell_length_a   7.53375667
_cell_length_b   13.31064003
_cell_length_c   7.78977624
_cell_angle_alpha   72.79835695
_cell_angle_beta   61.07970148
_cell_angle_gamma   90.00062832
_symmetry_Int_Tables_number   1
_chemical_formula_structural   K5SbF8
_chemical_formula_sum   'K10 Sb2 F16'
_cell_volume   643.52683073
_cell_formula_units_Z   2
loop_
 _symmetry_equiv_pos_site_id
 _symmetry_equiv_pos_as_xyz
  1  'x, y, z'
loop_
 _atom_site_type_symbol
 _atom_site_label
 _atom_site_symmetry_multiplicity
 _atom_site_fract_x
 _atom_site_fract_y
 _atom_site_fract_z
 _atom_site_occupancy
  K  K0  1  0.70564203  0.56641212  0.08914999  1.0
  K  K1  1  0.79477316  0.93357958  0.91087803  1.0
  K  K2  1  0.74956381  0.25002964  0.50006998  1.0
  K  K3  1  0.00000177  0.50000470  0.50001096  1.0
  K  K4  1  0.24965093  0.24997015  0.49985024  1.0
  K  K5  1  0.20521896  0.06641059  0.08911239  1.0
  K  K6  1  0.29437788  0.43357948  0.91084753  1.0
  K  K7  1  0.25046435  0.74996551  0.49990267  1.0
  K  K8  1  0.49998804  0.00000367  0.50000527  1.0
  K  K9  1  0.75034787  0.75003735  0.50011309  1.0
  Sb  Sb10  1  0.74974883  0.24999688  0.99999085  1.0
  Sb  Sb11  1  0.25024799  0.74999665  0.00003725  1.0
  F  F12  1  0.39764906  0.12919204  0.70378688  1.0
  F  F13  1  0.89850972  0.62918318  0.70382043  1.0
  F  F14  1  0.10148217  0.37084210  0.29617121  1.0
  F  F15  1  0.60234606  0.87082929  0.29619616  1.0
  F  F16  1  0.43603397  0.14785804  0.20966883  1.0
  F  F17  1  0.93645445  0.64793860  0.20970627  1.0
  F  F18  1  0.85386347  0.14794253  0.20968085  1.0
  F  F19  1  0.35429120  0.64788140  0.20973115  1.0
  F  F20  1  0.64744070  0.35188283  0.20449126  1.0
  F  F21  1  0.14807603  0.85188551  0.20451249  1.0
  F  F22  1  0.64574506  0.35211249  0.79030194  1.0
  F  F23  1  0.14613938  0.85204150  0.79037097  1.0
  F  F24  1  0.85193956  0.14810429  0.79545911  1.0
  F  F25  1  0.35257099  0.64810645  0.79548081  1.0
  F  F26  1  0.06351531  0.35206041  0.79032064  1.0
  F  F27  1  0.56392022  0.85215096  0.79033176  1.0
