# generated using pymatgen
data_KAlTe2
_symmetry_space_group_name_H-M   'P 1'
_cell_length_a   4.20708401
_cell_length_b   9.27273681
_cell_length_c   7.28457228
_cell_angle_alpha   66.97182396
_cell_angle_beta   89.99974472
_cell_angle_gamma   76.88744837
_symmetry_Int_Tables_number   1
_chemical_formula_structural   KAlTe2
_chemical_formula_sum   'K2 Al2 Te4'
_cell_volume   253.46359042
_cell_formula_units_Z   2
loop_
 _symmetry_equiv_pos_site_id
 _symmetry_equiv_pos_as_xyz
  1  'x, y, z'
loop_
 _atom_site_type_symbol
 _atom_site_label
 _atom_site_symmetry_multiplicity
 _atom_site_fract_x
 _atom_site_fract_y
 _atom_site_fract_z
 _atom_site_occupancy
  K  K0  1  0.25000292  0.50000020  0.25000153  1.0
  K  K1  1  0.75000375  0.49999980  0.74999847  1.0
  Al  Al2  1  0.49999443  0.00000000  0.50000000  1.0
  Al  Al3  1  0.99999494  0.00000000  0.00000000  1.0
  Te  Te4  1  0.40702477  0.18593088  0.07450879  1.0
  Te  Te5  1  0.90701997  0.18593289  0.57450537  1.0
  Te  Te6  1  0.59296703  0.81406912  0.92549121  1.0
  Te  Te7  1  0.09297118  0.81406712  0.42549463  1.0
