# generated using pymatgen
data_KAuCl2
_symmetry_space_group_name_H-M   'P 1'
_cell_length_a   4.25777636
_cell_length_b   4.26452679
_cell_length_c   6.96814958
_cell_angle_alpha   89.89019362
_cell_angle_beta   90.21642490
_cell_angle_gamma   120.17028943
_symmetry_Int_Tables_number   1
_chemical_formula_structural   KAuCl2
_chemical_formula_sum   'K1 Au1 Cl2'
_cell_volume   109.38327032
_cell_formula_units_Z   1
loop_
 _symmetry_equiv_pos_site_id
 _symmetry_equiv_pos_as_xyz
  1  'x, y, z'
loop_
 _atom_site_type_symbol
 _atom_site_label
 _atom_site_symmetry_multiplicity
 _atom_site_fract_x
 _atom_site_fract_y
 _atom_site_fract_z
 _atom_site_occupancy
  K  K0  1  0.00000340  0.99999653  0.00000689  1.0
  Au  Au1  1  0.99999126  0.00000906  0.50001749  1.0
  Cl  Cl2  1  0.33373162  0.66646148  0.28985864  1.0
  Cl  Cl3  1  0.66627372  0.33353294  0.71011698  1.0
