# generated using pymatgen
data_KCuI2
_symmetry_space_group_name_H-M   'P 1'
_cell_length_a   4.53874070
_cell_length_b   7.91420854
_cell_length_c   8.38592777
_cell_angle_alpha   90.10085810
_cell_angle_beta   90.00000129
_cell_angle_gamma   89.99999951
_symmetry_Int_Tables_number   1
_chemical_formula_structural   KCuI2
_chemical_formula_sum   'K2 Cu2 I4'
_cell_volume   301.22659062
_cell_formula_units_Z   2
loop_
 _symmetry_equiv_pos_site_id
 _symmetry_equiv_pos_as_xyz
  1  'x, y, z'
loop_
 _atom_site_type_symbol
 _atom_site_label
 _atom_site_symmetry_multiplicity
 _atom_site_fract_x
 _atom_site_fract_y
 _atom_site_fract_z
 _atom_site_occupancy
  K  K0  1  0.00000001  0.00000015  0.00000055  1.0
  K  K1  1  0.50000001  0.00000018  0.50000017  1.0
  Cu  Cu2  1  0.49999994  0.63322436  0.15643076  1.0
  Cu  Cu3  1  0.50000004  0.36677490  0.84356795  1.0
  I  I4  1  0.50000001  0.28935180  0.15354549  1.0
  I  I5  1  0.00000002  0.28423418  0.68841845  1.0
  I  I6  1  0.99999996  0.71576559  0.31158253  1.0
  I  I7  1  0.50000001  0.71064884  0.84645410  1.0
