# generated using pymatgen
data_KErS2
_symmetry_space_group_name_H-M   'P 1'
_cell_length_a   6.39714152
_cell_length_b   6.39700752
_cell_length_c   7.56866252
_cell_angle_alpha   104.13191377
_cell_angle_beta   104.13287480
_cell_angle_gamma   94.39071138
_symmetry_Int_Tables_number   1
_chemical_formula_structural   KErS2
_chemical_formula_sum   'K2 Er2 S4'
_cell_volume   288.19444082
_cell_formula_units_Z   2
loop_
 _symmetry_equiv_pos_site_id
 _symmetry_equiv_pos_as_xyz
  1  'x, y, z'
loop_
 _atom_site_type_symbol
 _atom_site_label
 _atom_site_symmetry_multiplicity
 _atom_site_fract_x
 _atom_site_fract_y
 _atom_site_fract_z
 _atom_site_occupancy
  K  K0  1  0.88649003  0.11352388  0.25000525  1.0
  K  K1  1  0.11352136  0.88648988  0.75000691  1.0
  Er  Er2  1  0.49999666  0.49999935  0.99999373  1.0
  Er  Er3  1  0.49999667  0.49999572  0.49999160  1.0
  S  S4  1  0.66484108  0.77363668  0.83960040  1.0
  S  S5  1  0.33515976  0.22635347  0.16039940  1.0
  S  S6  1  0.22635604  0.33516112  0.66040077  1.0
  S  S7  1  0.77363842  0.66483990  0.33960195  1.0
