# generated using pymatgen
data_KHoS2
_symmetry_space_group_name_H-M   'P 1'
_cell_length_a   6.37094052
_cell_length_b   6.37131998
_cell_length_c   7.62220479
_cell_angle_alpha   104.34128084
_cell_angle_beta   104.34263241
_cell_angle_gamma   93.99239253
_symmetry_Int_Tables_number   1
_chemical_formula_structural   KHoS2
_chemical_formula_sum   'K2 Ho2 S4'
_cell_volume   287.56936487
_cell_formula_units_Z   2
loop_
 _symmetry_equiv_pos_site_id
 _symmetry_equiv_pos_as_xyz
  1  'x, y, z'
loop_
 _atom_site_type_symbol
 _atom_site_label
 _atom_site_symmetry_multiplicity
 _atom_site_fract_x
 _atom_site_fract_y
 _atom_site_fract_z
 _atom_site_occupancy
  K  K0  1  0.88730880  0.11267874  0.24999829  1.0
  K  K1  1  0.11269095  0.88732153  0.75000143  1.0
  Ho  Ho2  1  0.50000003  0.50000003  0.00000011  1.0
  Ho  Ho3  1  0.50000010  0.49999983  0.50000003  1.0
  S  S4  1  0.66630936  0.77504631  0.84041632  1.0
  S  S5  1  0.33369080  0.22495350  0.15958379  1.0
  S  S6  1  0.22494436  0.33368358  0.65957968  1.0
  S  S7  1  0.77505561  0.66631650  0.34042036  1.0
