# generated using pymatgen
data_KInSe2
_symmetry_space_group_name_H-M   'P 1'
_cell_length_a   8.31169634
_cell_length_b   8.31169773
_cell_length_c   16.08338574
_cell_angle_alpha   82.53618796
_cell_angle_beta   82.53617437
_cell_angle_gamma   89.99801717
_symmetry_Int_Tables_number   1
_chemical_formula_structural   KInSe2
_chemical_formula_sum   'K8 In8 Se16'
_cell_volume   1092.20041607
_cell_formula_units_Z   8
loop_
 _symmetry_equiv_pos_site_id
 _symmetry_equiv_pos_as_xyz
  1  'x, y, z'
loop_
 _atom_site_type_symbol
 _atom_site_label
 _atom_site_symmetry_multiplicity
 _atom_site_fract_x
 _atom_site_fract_y
 _atom_site_fract_z
 _atom_site_occupancy
  K  K0  1  0.15273545  0.77723236  0.88568465  1.0
  K  K1  1  0.22276907  0.84726491  0.61431482  1.0
  K  K2  1  0.84726415  0.22276728  0.11431541  1.0
  K  K3  1  0.77723143  0.15273531  0.38568516  1.0
  K  K4  1  0.22095924  0.34409694  0.62018970  1.0
  K  K5  1  0.65590278  0.77904181  0.87981037  1.0
  K  K6  1  0.77904214  0.65590325  0.37980999  1.0
  K  K7  1  0.34409700  0.22095863  0.12018970  1.0
  In  In8  1  0.91245144  0.28917602  0.84360391  1.0
  In  In9  1  0.71082431  0.08754860  0.65639605  1.0
  In  In10  1  0.08754850  0.71082400  0.15639605  1.0
  In  In11  1  0.28917573  0.91245136  0.34360395  1.0
  In  In12  1  0.71088869  0.58436426  0.65610130  1.0
  In  In13  1  0.41563557  0.28911149  0.84389889  1.0
  In  In14  1  0.28911129  0.41563575  0.34389875  1.0
  In  In15  1  0.58436427  0.71088848  0.15610116  1.0
  Se  Se16  1  0.95033947  0.04966074  0.74999994  1.0
  Se  Se17  1  0.04966057  0.95033926  0.25000004  1.0
  Se  Se18  1  0.42480243  0.57519748  0.75000003  1.0
  Se  Se19  1  0.57519750  0.42480249  0.25000003  1.0
  Se  Se20  1  0.13841590  0.26503371  0.94556931  1.0
  Se  Se21  1  0.73496572  0.86158375  0.55443080  1.0
  Se  Se22  1  0.86158393  0.73496619  0.05443074  1.0
  Se  Se23  1  0.26503391  0.13841620  0.44556919  1.0
  Se  Se24  1  0.95058218  0.57519906  0.74945079  1.0
  Se  Se25  1  0.42480108  0.04941816  0.75054914  1.0
  Se  Se26  1  0.04941791  0.42480092  0.25054916  1.0
  Se  Se27  1  0.57519894  0.95058177  0.24945093  1.0
  Se  Se28  1  0.73583965  0.36174750  0.55344991  1.0
  Se  Se29  1  0.63825248  0.26416000  0.94655009  1.0
  Se  Se30  1  0.26415981  0.63825253  0.44655011  1.0
  Se  Se31  1  0.36174744  0.73583976  0.05344993  1.0
