# generated using pymatgen
data_KIr5S8
_symmetry_space_group_name_H-M   'P 1'
_cell_length_a   9.51693922
_cell_length_b   9.51693909
_cell_length_c   8.64006192
_cell_angle_alpha   72.69970892
_cell_angle_beta   72.69970915
_cell_angle_gamma   21.85100769
_symmetry_Int_Tables_number   1
_chemical_formula_structural   KIr5S8
_chemical_formula_sum   'K1 Ir5 S8'
_cell_volume   277.58030207
_cell_formula_units_Z   1
loop_
 _symmetry_equiv_pos_site_id
 _symmetry_equiv_pos_as_xyz
  1  'x, y, z'
loop_
 _atom_site_type_symbol
 _atom_site_label
 _atom_site_symmetry_multiplicity
 _atom_site_fract_x
 _atom_site_fract_y
 _atom_site_fract_z
 _atom_site_occupancy
  K  K0  1  0.50000000  0.50000000  0.50000001  1.0
  Ir  Ir1  1  0.00000000  0.00000000  0.00000000  1.0
  Ir  Ir2  1  0.34226859  0.34226856  0.95978487  1.0
  Ir  Ir3  1  0.65773141  0.65773143  0.04021514  1.0
  Ir  Ir4  1  0.30002562  0.30002562  0.32526798  1.0
  Ir  Ir5  1  0.69997437  0.69997439  0.67473202  1.0
  S  S6  1  0.57917314  0.57917318  0.87733782  1.0
  S  S7  1  0.42082687  0.42082681  0.12266217  1.0
  S  S8  1  0.08261047  0.08261045  0.17506761  1.0
  S  S9  1  0.91738954  0.91738954  0.82493239  1.0
  S  S10  1  0.17821957  0.17821958  0.51836875  1.0
  S  S11  1  0.82178042  0.82178044  0.48163125  1.0
  S  S12  1  0.23523632  0.23523633  0.85459848  1.0
  S  S13  1  0.76476368  0.76476367  0.14540151  1.0
