# generated using pymatgen
data_KNdS2
_symmetry_space_group_name_H-M   'P 1'
_cell_length_a   5.69426468
_cell_length_b   5.69417795
_cell_length_c   8.07826326
_cell_angle_alpha   107.65306821
_cell_angle_beta   107.65446061
_cell_angle_gamma   89.61837605
_symmetry_Int_Tables_number   1
_chemical_formula_structural   KNdS2
_chemical_formula_sum   'K2 Nd2 S4'
_cell_volume   236.78933477
_cell_formula_units_Z   2
loop_
 _symmetry_equiv_pos_site_id
 _symmetry_equiv_pos_as_xyz
  1  'x, y, z'
loop_
 _atom_site_type_symbol
 _atom_site_label
 _atom_site_symmetry_multiplicity
 _atom_site_fract_x
 _atom_site_fract_y
 _atom_site_fract_z
 _atom_site_occupancy
  K  K0  1  0.49999999  0.50000000  0.00000001  1.0
  K  K1  1  0.50000000  0.50000000  0.50000000  1.0
  Nd  Nd2  1  0.90266875  0.09733294  0.25000018  1.0
  Nd  Nd3  1  0.09733125  0.90266705  0.74999981  1.0
  S  S4  1  0.66627492  0.94055908  0.85112497  1.0
  S  S5  1  0.33372508  0.05944092  0.14887503  1.0
  S  S6  1  0.05944297  0.33372610  0.64887649  1.0
  S  S7  1  0.94055703  0.66627390  0.35112351  1.0
