# generated using pymatgen
data_KPH4
_symmetry_space_group_name_H-M   'P 1'
_cell_length_a   6.57354209
_cell_length_b   6.87022910
_cell_length_c   9.39331917
_cell_angle_alpha   64.06032594
_cell_angle_beta   90.00066667
_cell_angle_gamma   90.00065458
_symmetry_Int_Tables_number   1
_chemical_formula_structural   KPH4
_chemical_formula_sum   'K4 P4 H16'
_cell_volume   381.48077638
_cell_formula_units_Z   4
loop_
 _symmetry_equiv_pos_site_id
 _symmetry_equiv_pos_as_xyz
  1  'x, y, z'
loop_
 _atom_site_type_symbol
 _atom_site_label
 _atom_site_symmetry_multiplicity
 _atom_site_fract_x
 _atom_site_fract_y
 _atom_site_fract_z
 _atom_site_occupancy
  K  K0  1  0.85170476  0.00000040  0.74999432  1.0
  K  K1  1  0.14829640  0.00000379  0.25000316  1.0
  K  K2  1  0.31775412  0.49999853  0.75000494  1.0
  K  K3  1  0.68224525  0.49999799  0.24999789  1.0
  P  P4  1  0.85005365  0.59681712  0.58405981  1.0
  P  P5  1  0.14990737  0.40322340  0.41593118  1.0
  P  P6  1  0.85008172  0.40320725  0.91593396  1.0
  P  P7  1  0.14993473  0.59681192  0.08406378  1.0
  H  H8  1  0.20725304  0.72728080  0.92050791  1.0
  H  H9  1  0.79274514  0.27271196  0.07949930  1.0
  H  H10  1  0.20725219  0.27270827  0.57950486  1.0
  H  H11  1  0.79275497  0.72727434  0.42051236  1.0
  H  H12  1  0.69855424  0.69386452  0.64583540  1.0
  H  H13  1  0.30147098  0.30611790  0.35415484  1.0
  H  H14  1  0.69852917  0.30611998  0.85415723  1.0
  H  H15  1  0.30145896  0.69387272  0.14583789  1.0
  H  H16  1  0.65902855  0.41581284  0.59370461  1.0
  H  H17  1  0.34097202  0.58418099  0.40629745  1.0
  H  H18  1  0.65903041  0.58418989  0.90629196  1.0
  H  H19  1  0.34097071  0.41580624  0.09370942  1.0
  H  H20  1  0.99773505  0.79637557  0.06787790  1.0
  H  H21  1  0.00226509  0.20362508  0.93212058  1.0
  H  H22  1  0.99772159  0.20363093  0.43211592  1.0
  H  H23  1  0.00227990  0.79636758  0.56788333  1.0
