# generated using pymatgen
data_KRbI2
_symmetry_space_group_name_H-M   'P 1'
_cell_length_a   6.85827423
_cell_length_b   6.85854929
_cell_length_c   10.35302409
_cell_angle_alpha   108.21425099
_cell_angle_beta   108.21449255
_cell_angle_gamma   87.84498317
_symmetry_Int_Tables_number   1
_chemical_formula_structural   KRbI2
_chemical_formula_sum   'K2 Rb2 I4'
_cell_volume   438.42855673
_cell_formula_units_Z   2
loop_
 _symmetry_equiv_pos_site_id
 _symmetry_equiv_pos_as_xyz
  1  'x, y, z'
loop_
 _atom_site_type_symbol
 _atom_site_label
 _atom_site_symmetry_multiplicity
 _atom_site_fract_x
 _atom_site_fract_y
 _atom_site_fract_z
 _atom_site_occupancy
  K  K0  1  0.89606338  0.10393921  0.25000492  1.0
  K  K1  1  0.10393661  0.89606080  0.74999508  1.0
  Rb  Rb2  1  0.50000001  0.49999999  0.00000000  1.0
  Rb  Rb3  1  0.50000000  0.50000000  0.50000000  1.0
  I  I4  1  0.65960511  0.89440634  0.84948939  1.0
  I  I5  1  0.34039489  0.10559366  0.15051061  1.0
  I  I6  1  0.10556517  0.34039821  0.65051140  1.0
  I  I7  1  0.89443483  0.65960180  0.34948860  1.0
