# generated using pymatgen
data_KScO2
_symmetry_space_group_name_H-M   'P 1'
_cell_length_a   3.24606272
_cell_length_b   3.24606284
_cell_length_c   6.34904628
_cell_angle_alpha   89.99999656
_cell_angle_beta   89.99999840
_cell_angle_gamma   120.00000501
_symmetry_Int_Tables_number   1
_chemical_formula_structural   KScO2
_chemical_formula_sum   'K1 Sc1 O2'
_cell_volume   57.93659031
_cell_formula_units_Z   1
loop_
 _symmetry_equiv_pos_site_id
 _symmetry_equiv_pos_as_xyz
  1  'x, y, z'
loop_
 _atom_site_type_symbol
 _atom_site_label
 _atom_site_symmetry_multiplicity
 _atom_site_fract_x
 _atom_site_fract_y
 _atom_site_fract_z
 _atom_site_occupancy
  K  K0  1  0.99999987  0.99999994  0.50000008  1.0
  Sc  Sc1  1  0.00000017  0.00000015  0.99999986  1.0
  O  O2  1  0.33333333  0.66666667  0.17635305  1.0
  O  O3  1  0.66666667  0.33333333  0.82364702  1.0
