# generated using pymatgen
data_KTe2Au
_symmetry_space_group_name_H-M   'P 1'
_cell_length_a   6.02807899
_cell_length_b   12.49623965
_cell_length_c   9.27411016
_cell_angle_alpha   34.40107217
_cell_angle_beta   90.01085243
_cell_angle_gamma   90.01260554
_symmetry_Int_Tables_number   1
_chemical_formula_structural   KTe2Au
_chemical_formula_sum   'K2 Te4 Au2'
_cell_volume   394.69849670
_cell_formula_units_Z   2
loop_
 _symmetry_equiv_pos_site_id
 _symmetry_equiv_pos_as_xyz
  1  'x, y, z'
loop_
 _atom_site_type_symbol
 _atom_site_label
 _atom_site_symmetry_multiplicity
 _atom_site_fract_x
 _atom_site_fract_y
 _atom_site_fract_z
 _atom_site_occupancy
  K  K0  1  0.99547890  0.99999883  0.50000594  1.0
  K  K1  1  0.50453203  0.50000046  0.50000465  1.0
  Te  Te2  1  0.51651985  0.18985370  0.54688292  1.0
  Te  Te3  1  0.98351040  0.30957942  0.45332686  1.0
  Te  Te4  1  0.51658262  0.81012304  0.45312434  1.0
  Te  Te5  1  0.98344957  0.69041048  0.54672993  1.0
  Au  Au6  1  0.98580163  0.50003506  0.99992043  1.0
  Au  Au7  1  0.51412500  0.99999900  0.00000494  1.0
