# generated using pymatgen
data_KTlSe2
_symmetry_space_group_name_H-M   'P 1'
_cell_length_a   4.25130878
_cell_length_b   4.25130875
_cell_length_c   7.84569609
_cell_angle_alpha   89.99994110
_cell_angle_beta   90.00005911
_cell_angle_gamma   120.00006431
_symmetry_Int_Tables_number   1
_chemical_formula_structural   KTlSe2
_chemical_formula_sum   'K1 Tl1 Se2'
_cell_volume   122.80247729
_cell_formula_units_Z   1
loop_
 _symmetry_equiv_pos_site_id
 _symmetry_equiv_pos_as_xyz
  1  'x, y, z'
loop_
 _atom_site_type_symbol
 _atom_site_label
 _atom_site_symmetry_multiplicity
 _atom_site_fract_x
 _atom_site_fract_y
 _atom_site_fract_z
 _atom_site_occupancy
  K  K0  1  0.99999999  0.00000000  0.00000002  1.0
  Tl  Tl1  1  0.00000001  0.00000000  0.50000000  1.0
  Se  Se2  1  0.66666667  0.33333333  0.70452120  1.0
  Se  Se3  1  0.33333333  0.66666667  0.29547877  1.0
