# generated using pymatgen
data_KTmF4
_symmetry_space_group_name_H-M   'P 1'
_cell_length_a   5.89141291
_cell_length_b   5.93523932
_cell_length_c   6.69450887
_cell_angle_alpha   90.00030673
_cell_angle_beta   90.00116267
_cell_angle_gamma   92.13882586
_symmetry_Int_Tables_number   1
_chemical_formula_structural   KTmF4
_chemical_formula_sum   'K2 Tm2 F8'
_cell_volume   233.92344679
_cell_formula_units_Z   2
loop_
 _symmetry_equiv_pos_site_id
 _symmetry_equiv_pos_as_xyz
  1  'x, y, z'
loop_
 _atom_site_type_symbol
 _atom_site_label
 _atom_site_symmetry_multiplicity
 _atom_site_fract_x
 _atom_site_fract_y
 _atom_site_fract_z
 _atom_site_occupancy
  K  K0  1  0.99999991  0.74999912  0.82773601  1.0
  K  K1  1  0.00000013  0.25000074  0.17226375  1.0
  Tm  Tm2  1  0.49999285  0.74999284  0.34137335  1.0
  Tm  Tm3  1  0.50000690  0.25000729  0.65862681  1.0
  F  F4  1  0.74399563  0.37337166  0.85876692  1.0
  F  F5  1  0.25600431  0.62662848  0.14123324  1.0
  F  F6  1  0.25599743  0.12662389  0.85877244  1.0
  F  F7  1  0.74400269  0.87337614  0.14122739  1.0
  F  F8  1  0.68549495  0.94366306  0.58943322  1.0
  F  F9  1  0.31450511  0.05633682  0.41056682  1.0
  F  F10  1  0.31450542  0.55633623  0.58943387  1.0
  F  F11  1  0.68549468  0.44366373  0.41056616  1.0
