# generated using pymatgen
data_KTmS2
_symmetry_space_group_name_H-M   'P 1'
_cell_length_a   6.40832284
_cell_length_b   6.40744435
_cell_length_c   7.52626042
_cell_angle_alpha   103.98982071
_cell_angle_beta   103.98835948
_cell_angle_gamma   94.78256912
_symmetry_Int_Tables_number   1
_chemical_formula_structural   KTmS2
_chemical_formula_sum   'K2 Tm2 S4'
_cell_volume   287.65728447
_cell_formula_units_Z   2
loop_
 _symmetry_equiv_pos_site_id
 _symmetry_equiv_pos_as_xyz
  1  'x, y, z'
loop_
 _atom_site_type_symbol
 _atom_site_label
 _atom_site_symmetry_multiplicity
 _atom_site_fract_x
 _atom_site_fract_y
 _atom_site_fract_z
 _atom_site_occupancy
  K  K0  1  0.88561708  0.11440632  0.25000297  1.0
  K  K1  1  0.11438291  0.88559367  0.74999705  1.0
  Tm  Tm2  1  0.50000004  0.49999999  0.00000000  1.0
  Tm  Tm3  1  0.49999994  0.50000004  0.49999999  1.0
  S  S4  1  0.66510202  0.77274389  0.83922473  1.0
  S  S5  1  0.33489797  0.22725612  0.16077525  1.0
  S  S6  1  0.22727408  0.33491308  0.66077954  1.0
  S  S7  1  0.77272595  0.66508689  0.33922046  1.0
