# generated using pymatgen
data_KVO2
_symmetry_space_group_name_H-M   'P 1'
_cell_length_a   3.16763337
_cell_length_b   3.11583750
_cell_length_c   6.24116898
_cell_angle_alpha   89.99925008
_cell_angle_beta   89.18697326
_cell_angle_gamma   119.46108723
_symmetry_Int_Tables_number   1
_chemical_formula_structural   KVO2
_chemical_formula_sum   'K1 V1 O2'
_cell_volume   53.62674526
_cell_formula_units_Z   1
loop_
 _symmetry_equiv_pos_site_id
 _symmetry_equiv_pos_as_xyz
  1  'x, y, z'
loop_
 _atom_site_type_symbol
 _atom_site_label
 _atom_site_symmetry_multiplicity
 _atom_site_fract_x
 _atom_site_fract_y
 _atom_site_fract_z
 _atom_site_occupancy
  K  K0  1  0.99999996  0.00000001  0.49999999  1.0
  V  V1  1  0.00000002  0.99999999  0.00000000  1.0
  O  O2  1  0.66834875  0.33417183  0.17328444  1.0
  O  O3  1  0.33165127  0.66582817  0.82671556  1.0
