# generated using pymatgen
data_KYbSe2
_symmetry_space_group_name_H-M   'P 1'
_cell_length_a   6.54227343
_cell_length_b   6.54198968
_cell_length_c   8.91309512
_cell_angle_alpha   107.50574348
_cell_angle_beta   107.50415070
_cell_angle_gamma   107.41199492
_symmetry_Int_Tables_number   1
_chemical_formula_structural   KYbSe2
_chemical_formula_sum   'K2 Yb2 Se4'
_cell_volume   313.49830742
_cell_formula_units_Z   2
loop_
 _symmetry_equiv_pos_site_id
 _symmetry_equiv_pos_as_xyz
  1  'x, y, z'
loop_
 _atom_site_type_symbol
 _atom_site_label
 _atom_site_symmetry_multiplicity
 _atom_site_fract_x
 _atom_site_fract_y
 _atom_site_fract_z
 _atom_site_occupancy
  K  K0  1  0.82651475  0.17350892  0.25000118  1.0
  K  K1  1  0.17350328  0.82647308  0.74999883  1.0
  Yb  Yb2  1  0.50001794  0.49998357  0.99982641  1.0
  Yb  Yb3  1  0.50001643  0.49998203  0.50017359  1.0
  Se  Se4  1  0.72072383  0.80320277  0.86748452  1.0
  Se  Se5  1  0.27975383  0.19732732  0.13271498  1.0
  Se  Se6  1  0.19679064  0.27923502  0.63249834  1.0
  Se  Se7  1  0.80267930  0.72028730  0.36730216  1.0
