# generated using pymatgen
data_KYO2
_symmetry_space_group_name_H-M   'P 1'
_cell_length_a   7.12896623
_cell_length_b   7.12897665
_cell_length_c   13.24881273
_cell_angle_alpha   82.45225366
_cell_angle_beta   82.45226993
_cell_angle_gamma   89.99941650
_symmetry_Int_Tables_number   1
_chemical_formula_structural   KYO2
_chemical_formula_sum   'K8 Y8 O16'
_cell_volume   661.61508510
_cell_formula_units_Z   8
loop_
 _symmetry_equiv_pos_site_id
 _symmetry_equiv_pos_as_xyz
  1  'x, y, z'
loop_
 _atom_site_type_symbol
 _atom_site_label
 _atom_site_symmetry_multiplicity
 _atom_site_fract_x
 _atom_site_fract_y
 _atom_site_fract_z
 _atom_site_occupancy
  K  K0  1  0.65391515  0.77968398  0.88267765  1.0
  K  K1  1  0.34608486  0.22031602  0.11732235  1.0
  K  K2  1  0.22031601  0.34608483  0.61732253  1.0
  K  K3  1  0.77968399  0.65391517  0.38267747  1.0
  K  K4  1  0.22073261  0.84381427  0.62811522  1.0
  K  K5  1  0.77926738  0.15618572  0.37188478  1.0
  K  K6  1  0.15618565  0.77926733  0.87188501  1.0
  K  K7  1  0.84381435  0.22073268  0.12811499  1.0
  Y  Y8  1  0.71544835  0.09059629  0.64351885  1.0
  Y  Y9  1  0.28455165  0.90940371  0.35648115  1.0
  Y  Y10  1  0.90940388  0.28455132  0.85648262  1.0
  Y  Y11  1  0.09059612  0.71544868  0.14351738  1.0
  Y  Y12  1  0.41276262  0.28514712  0.85416550  1.0
  Y  Y13  1  0.58723738  0.71485288  0.14583450  1.0
  Y  Y14  1  0.71485253  0.58723651  0.64583601  1.0
  Y  Y15  1  0.28514747  0.41276349  0.35416399  1.0
  O  O16  1  0.45201920  0.07572827  0.74812077  1.0
  O  O17  1  0.54798080  0.92427173  0.25187923  1.0
  O  O18  1  0.92427096  0.54798190  0.75187855  1.0
  O  O19  1  0.07572904  0.45201810  0.24812145  1.0
  O  O20  1  0.63667165  0.26131352  0.94968625  1.0
  O  O21  1  0.36332835  0.73868648  0.05031375  1.0
  O  O22  1  0.73868652  0.36332848  0.55031341  1.0
  O  O23  1  0.26131348  0.63667152  0.44968659  1.0
  O  O24  1  0.45124265  0.54875846  0.74999965  1.0
  O  O25  1  0.54875735  0.45124154  0.25000035  1.0
  O  O26  1  0.73808894  0.86036481  0.55265559  1.0
  O  O27  1  0.26191106  0.13963519  0.44734441  1.0
  O  O28  1  0.13963529  0.26191116  0.94734393  1.0
  O  O29  1  0.86036471  0.73808884  0.05265607  1.0
  O  O30  1  0.92437340  0.07562581  0.74999965  1.0
  O  O31  1  0.07562660  0.92437419  0.25000035  1.0
