# generated using pymatgen
data_LaCl2F
_symmetry_space_group_name_H-M   'P 1'
_cell_length_a   4.84603702
_cell_length_b   4.84603624
_cell_length_c   4.84603717
_cell_angle_alpha   59.99998771
_cell_angle_beta   59.99998141
_cell_angle_gamma   59.99998480
_symmetry_Int_Tables_number   1
_chemical_formula_structural   LaCl2F
_chemical_formula_sum   'La1 Cl2 F1'
_cell_volume   80.47203369
_cell_formula_units_Z   1
loop_
 _symmetry_equiv_pos_site_id
 _symmetry_equiv_pos_as_xyz
  1  'x, y, z'
loop_
 _atom_site_type_symbol
 _atom_site_label
 _atom_site_symmetry_multiplicity
 _atom_site_fract_x
 _atom_site_fract_y
 _atom_site_fract_z
 _atom_site_occupancy
  La  La0  1  0.50000004  0.50000003  0.49999994  1.0
  Cl  Cl1  1  0.25000000  0.24999997  0.24999998  1.0
  Cl  Cl2  1  0.74999995  0.75000002  0.75000005  1.0
  F  F3  1  0.00000001  0.99999999  0.00000002  1.0
