# generated using pymatgen
data_LaH2F
_symmetry_space_group_name_H-M   'P 1'
_cell_length_a   3.39515024
_cell_length_b   6.22293725
_cell_length_c   7.32105917
_cell_angle_alpha   81.66710817
_cell_angle_beta   89.99995674
_cell_angle_gamma   90.00007585
_symmetry_Int_Tables_number   1
_chemical_formula_structural   LaH2F
_chemical_formula_sum   'La2 H4 F2'
_cell_volume   153.04495174
_cell_formula_units_Z   2
loop_
 _symmetry_equiv_pos_site_id
 _symmetry_equiv_pos_as_xyz
  1  'x, y, z'
loop_
 _atom_site_type_symbol
 _atom_site_label
 _atom_site_symmetry_multiplicity
 _atom_site_fract_x
 _atom_site_fract_y
 _atom_site_fract_z
 _atom_site_occupancy
  La  La0  1  0.99999977  0.89324017  0.29415954  1.0
  La  La1  1  0.00000012  0.10675971  0.70584031  1.0
  H  H2  1  0.50000050  0.07827324  0.12988281  1.0
  H  H3  1  0.49999951  0.92172697  0.87011766  1.0
  H  H4  1  0.49999986  0.84202350  0.57093932  1.0
  H  H5  1  0.50000031  0.15797643  0.42906073  1.0
  F  F6  1  0.49999922  0.65342191  0.24513165  1.0
  F  F7  1  0.50000071  0.34657807  0.75486798  1.0
