# generated using pymatgen
data_LaICl2
_symmetry_space_group_name_H-M   'P 1'
_cell_length_a   4.02494231
_cell_length_b   10.20381468
_cell_length_c   10.91861709
_cell_angle_alpha   70.96495131
_cell_angle_beta   90.00470395
_cell_angle_gamma   89.99351027
_symmetry_Int_Tables_number   1
_chemical_formula_structural   LaICl2
_chemical_formula_sum   'La2 I2 Cl4'
_cell_volume   423.90481617
_cell_formula_units_Z   2
loop_
 _symmetry_equiv_pos_site_id
 _symmetry_equiv_pos_as_xyz
  1  'x, y, z'
loop_
 _atom_site_type_symbol
 _atom_site_label
 _atom_site_symmetry_multiplicity
 _atom_site_fract_x
 _atom_site_fract_y
 _atom_site_fract_z
 _atom_site_occupancy
  La  La0  1  0.99999438  0.83330482  0.31362038  1.0
  La  La1  1  0.00000551  0.16669519  0.68637958  1.0
  I  I2  1  0.50007244  0.62595393  0.23956569  1.0
  I  I3  1  0.49992767  0.37404604  0.76043425  1.0
  Cl  Cl4  1  0.49986657  0.02256118  0.18113603  1.0
  Cl  Cl5  1  0.50013343  0.97743898  0.81886416  1.0
  Cl  Cl6  1  0.50006141  0.80126010  0.50517036  1.0
  Cl  Cl7  1  0.49993858  0.19873975  0.49482954  1.0
