# generated using pymatgen
data_LaInN2
_symmetry_space_group_name_H-M   'P 1'
_cell_length_a   6.74107212
_cell_length_b   6.74107210
_cell_length_c   12.34738597
_cell_angle_alpha   82.12449069
_cell_angle_beta   82.12449899
_cell_angle_gamma   90.00192785
_symmetry_Int_Tables_number   1
_chemical_formula_structural   LaInN2
_chemical_formula_sum   'La8 In8 N16'
_cell_volume   550.45506776
_cell_formula_units_Z   8
loop_
 _symmetry_equiv_pos_site_id
 _symmetry_equiv_pos_as_xyz
  1  'x, y, z'
loop_
 _atom_site_type_symbol
 _atom_site_label
 _atom_site_symmetry_multiplicity
 _atom_site_fract_x
 _atom_site_fract_y
 _atom_site_fract_z
 _atom_site_occupancy
  La  La0  1  0.72042032  0.34512570  0.11894779  1.0
  La  La1  1  0.72120600  0.84327332  0.12591258  1.0
  La  La2  1  0.27879379  0.15672656  0.87408741  1.0
  La  La3  1  0.15672647  0.27879362  0.37408742  1.0
  La  La4  1  0.65487406  0.27958018  0.38105222  1.0
  La  La5  1  0.27958006  0.65487415  0.88105222  1.0
  La  La6  1  0.34512581  0.72042023  0.61894779  1.0
  La  La7  1  0.84327342  0.72120614  0.62591258  1.0
  In  In8  1  0.21517666  0.08814190  0.14056704  1.0
  In  In9  1  0.78520591  0.40901455  0.85808067  1.0
  In  In10  1  0.91185806  0.78482339  0.35943294  1.0
  In  In11  1  0.59098544  0.21479412  0.64191934  1.0
  In  In12  1  0.78482341  0.91185807  0.85943295  1.0
  In  In13  1  0.08814191  0.21517668  0.64056705  1.0
  In  In14  1  0.40901453  0.78520591  0.35808067  1.0
  In  In15  1  0.21479412  0.59098542  0.14191935  1.0
  N  N16  1  0.92294773  0.07705231  0.24999999  1.0
  N  N17  1  0.24266175  0.86961332  0.02367853  1.0
  N  N18  1  0.13038665  0.75733859  0.47632146  1.0
  N  N19  1  0.07770487  0.45223633  0.75012650  1.0
  N  N20  1  0.86961331  0.24266164  0.52367853  1.0
  N  N21  1  0.24463692  0.36866969  0.02211859  1.0
  N  N22  1  0.75733847  0.13038663  0.97632147  1.0
  N  N23  1  0.75536286  0.63133027  0.97788141  1.0
  N  N24  1  0.54713039  0.45286957  0.75000001  1.0
  N  N25  1  0.36866967  0.24463697  0.52211860  1.0
  N  N26  1  0.45223630  0.07770490  0.25012651  1.0
  N  N27  1  0.54776377  0.92229511  0.74987347  1.0
  N  N28  1  0.07705233  0.92294775  0.75000002  1.0
  N  N29  1  0.45286958  0.54713041  0.25000002  1.0
  N  N30  1  0.92229512  0.54776376  0.24987348  1.0
  N  N31  1  0.63133030  0.75536280  0.47788141  1.0
