# generated using pymatgen
data_LaSeBr
_symmetry_space_group_name_H-M   'P 1'
_cell_length_a   5.12154142
_cell_length_b   5.12153772
_cell_length_c   5.12155352
_cell_angle_alpha   60.00032634
_cell_angle_beta   60.00016804
_cell_angle_gamma   60.00020542
_symmetry_Int_Tables_number   1
_chemical_formula_structural   LaSeBr
_chemical_formula_sum   'La1 Se1 Br1'
_cell_volume   94.99266666
_cell_formula_units_Z   1
loop_
 _symmetry_equiv_pos_site_id
 _symmetry_equiv_pos_as_xyz
  1  'x, y, z'
loop_
 _atom_site_type_symbol
 _atom_site_label
 _atom_site_symmetry_multiplicity
 _atom_site_fract_x
 _atom_site_fract_y
 _atom_site_fract_z
 _atom_site_occupancy
  La  La0  1  0.99999524  0.00000384  0.00000304  1.0
  Se  Se1  1  0.25000256  0.24999774  0.24999841  1.0
  Br  Br2  1  0.50000220  0.49999842  0.49999854  1.0
