# generated using pymatgen
data_LaYAs2
_symmetry_space_group_name_H-M   'P 1'
_cell_length_a   5.21400300
_cell_length_b   5.21400572
_cell_length_c   5.21400015
_cell_angle_alpha   60.00004436
_cell_angle_beta   60.00001109
_cell_angle_gamma   60.00005592
_symmetry_Int_Tables_number   1
_chemical_formula_structural   LaYAs2
_chemical_formula_sum   'La1 Y1 As2'
_cell_volume   100.23033618
_cell_formula_units_Z   1
loop_
 _symmetry_equiv_pos_site_id
 _symmetry_equiv_pos_as_xyz
  1  'x, y, z'
loop_
 _atom_site_type_symbol
 _atom_site_label
 _atom_site_symmetry_multiplicity
 _atom_site_fract_x
 _atom_site_fract_y
 _atom_site_fract_z
 _atom_site_occupancy
  La  La0  1  0.99999993  0.00000001  0.99999995  1.0
  Y  Y1  1  0.50000004  0.49999998  0.50000002  1.0
  As  As2  1  0.75000000  0.74999991  0.75000008  1.0
  As  As3  1  0.25000003  0.25000009  0.24999996  1.0
