# generated using pymatgen
data_Li2HI
_symmetry_space_group_name_H-M   'P 1'
_cell_length_a   5.87131039
_cell_length_b   5.89941046
_cell_length_c   9.97824943
_cell_angle_alpha   107.22064952
_cell_angle_beta   93.45238727
_cell_angle_gamma   90.00298829
_symmetry_Int_Tables_number   1
_chemical_formula_structural   Li2HI
_chemical_formula_sum   'Li8 H4 I4'
_cell_volume   329.46873391
_cell_formula_units_Z   4
loop_
 _symmetry_equiv_pos_site_id
 _symmetry_equiv_pos_as_xyz
  1  'x, y, z'
loop_
 _atom_site_type_symbol
 _atom_site_label
 _atom_site_symmetry_multiplicity
 _atom_site_fract_x
 _atom_site_fract_y
 _atom_site_fract_z
 _atom_site_occupancy
  Li  Li0  1  0.19704161  0.11336003  0.76186931  1.0
  Li  Li1  1  0.30277513  0.35146482  0.23818788  1.0
  Li  Li2  1  0.80295838  0.88663998  0.23813069  1.0
  Li  Li3  1  0.69722487  0.64853520  0.76181212  1.0
  Li  Li4  1  0.14839501  0.13903587  0.45740131  1.0
  Li  Li5  1  0.35172366  0.68174577  0.54278696  1.0
  Li  Li6  1  0.85160500  0.86096411  0.54259868  1.0
  Li  Li7  1  0.64827635  0.31825422  0.45721305  1.0
  H  H8  1  0.16828928  0.94827773  0.57319453  1.0
  H  H9  1  0.33162046  0.37515027  0.42682674  1.0
  H  H10  1  0.83171073  0.05172226  0.42680547  1.0
  H  H11  1  0.66837955  0.62484972  0.57317326  1.0
  I  I12  1  0.30779881  0.83277109  0.20746384  1.0
  I  I13  1  0.19226813  0.62544917  0.79256455  1.0
  I  I14  1  0.69220118  0.16722892  0.79253615  1.0
  I  I15  1  0.80773186  0.37455085  0.20743546  1.0
