# generated using pymatgen
data_Li5SbCl8
_symmetry_space_group_name_H-M   'P 1'
_cell_length_a   7.53373068
_cell_length_b   13.09267389
_cell_length_c   7.69766110
_cell_angle_alpha   73.57405257
_cell_angle_beta   60.70212383
_cell_angle_gamma   89.99952600
_symmetry_Int_Tables_number   1
_chemical_formula_structural   Li5SbCl8
_chemical_formula_sum   'Li10 Sb2 Cl16'
_cell_volume   626.37687962
_cell_formula_units_Z   2
loop_
 _symmetry_equiv_pos_site_id
 _symmetry_equiv_pos_as_xyz
  1  'x, y, z'
loop_
 _atom_site_type_symbol
 _atom_site_label
 _atom_site_symmetry_multiplicity
 _atom_site_fract_x
 _atom_site_fract_y
 _atom_site_fract_z
 _atom_site_occupancy
  Li  Li0  1  0.71272546  0.56921868  0.07489643  1.0
  Li  Li1  1  0.78758215  0.93077409  0.92512732  1.0
  Li  Li2  1  0.74965218  0.25006466  0.50001309  1.0
  Li  Li3  1  0.00000631  0.50000026  0.50000532  1.0
  Li  Li4  1  0.24970109  0.24997780  0.49994825  1.0
  Li  Li5  1  0.21241348  0.06922009  0.07485528  1.0
  Li  Li6  1  0.28729384  0.43077610  0.92509486  1.0
  Li  Li7  1  0.25032099  0.74995443  0.50001838  1.0
  Li  Li8  1  0.49998452  0.99999963  0.49999825  1.0
  Li  Li9  1  0.75029706  0.75005296  0.50007475  1.0
  Sb  Sb10  1  0.74979635  0.24999758  0.99998649  1.0
  Sb  Sb11  1  0.25019303  0.74997991  0.00003833  1.0
  Cl  Cl12  1  0.39785695  0.13201902  0.70382341  1.0
  Cl  Cl13  1  0.89830024  0.63201734  0.70386004  1.0
  Cl  Cl14  1  0.10170602  0.36798033  0.29613863  1.0
  Cl  Cl15  1  0.60213784  0.86797747  0.29616953  1.0
  Cl  Cl16  1  0.37567694  0.12540568  0.25247114  1.0
  Cl  Cl17  1  0.87601533  0.62542719  0.25250668  1.0
  Cl  Cl18  1  0.87150629  0.12542298  0.25246727  1.0
  Cl  Cl19  1  0.37183148  0.62540575  0.25250585  1.0
  Cl  Cl20  1  0.62255288  0.37219069  0.25446043  1.0
  Cl  Cl21  1  0.12298032  0.87219619  0.25449007  1.0
  Cl  Cl22  1  0.62817506  0.37459366  0.74747999  1.0
  Cl  Cl23  1  0.12848594  0.87457183  0.74752405  1.0
  Cl  Cl24  1  0.87701208  0.12780211  0.74551208  1.0
  Cl  Cl25  1  0.37745287  0.62780717  0.74554370  1.0
  Cl  Cl26  1  0.12400752  0.37456990  0.74748325  1.0
  Cl  Cl27  1  0.62433877  0.87459449  0.74750615  1.0
