# generated using pymatgen
data_LiBiO2
_symmetry_space_group_name_H-M   'P 1'
_cell_length_a   5.90263216
_cell_length_b   6.04157900
_cell_length_c   7.20534502
_cell_angle_alpha   86.93474884
_cell_angle_beta   83.71588250
_cell_angle_gamma   60.75742921
_symmetry_Int_Tables_number   1
_chemical_formula_structural   LiBiO2
_chemical_formula_sum   'Li4 Bi4 O8'
_cell_volume   222.85815895
_cell_formula_units_Z   4
loop_
 _symmetry_equiv_pos_site_id
 _symmetry_equiv_pos_as_xyz
  1  'x, y, z'
loop_
 _atom_site_type_symbol
 _atom_site_label
 _atom_site_symmetry_multiplicity
 _atom_site_fract_x
 _atom_site_fract_y
 _atom_site_fract_z
 _atom_site_occupancy
  Li  Li0  1  0.07321996  0.38136264  0.36175666  1.0
  Li  Li1  1  0.54541569  0.38136472  0.13824289  1.0
  Li  Li2  1  0.92677998  0.61863728  0.63824325  1.0
  Li  Li3  1  0.45458408  0.61863542  0.86175698  1.0
  Bi  Bi4  1  0.83725068  0.81999157  0.11495972  1.0
  Bi  Bi5  1  0.34275886  0.81999215  0.38504009  1.0
  Bi  Bi6  1  0.16274970  0.18000865  0.88504007  1.0
  Bi  Bi7  1  0.65724175  0.18000765  0.61495968  1.0
  O  O8  1  0.56593269  0.86813527  0.74999983  1.0
  O  O9  1  0.43406700  0.13186475  0.25000004  1.0
  O  O10  1  0.95764462  0.78243597  0.40634540  1.0
  O  O11  1  0.25992097  0.78243252  0.09365697  1.0
  O  O12  1  0.04235474  0.21756513  0.59365486  1.0
  O  O13  1  0.74007943  0.21756634  0.90634326  1.0
  O  O14  1  0.74894125  0.50212215  0.24999781  1.0
  O  O15  1  0.25105858  0.49787778  0.75000249  1.0
