# generated using pymatgen
data_LiCrAs
_symmetry_space_group_name_H-M   'P 1'
_cell_length_a   4.25796952
_cell_length_b   4.25796991
_cell_length_c   4.25796968
_cell_angle_alpha   59.99977252
_cell_angle_beta   59.99977532
_cell_angle_gamma   59.99976403
_symmetry_Int_Tables_number   1
_chemical_formula_structural   LiCrAs
_chemical_formula_sum   'Li1 Cr1 As1'
_cell_volume   54.58715304
_cell_formula_units_Z   1
loop_
 _symmetry_equiv_pos_site_id
 _symmetry_equiv_pos_as_xyz
  1  'x, y, z'
loop_
 _atom_site_type_symbol
 _atom_site_label
 _atom_site_symmetry_multiplicity
 _atom_site_fract_x
 _atom_site_fract_y
 _atom_site_fract_z
 _atom_site_occupancy
  Li  Li0  1  0.00000029  0.00000025  0.00000023  1.0
  Cr  Cr1  1  0.49999977  0.49999979  0.49999981  1.0
  As  As2  1  0.24999994  0.24999996  0.24999996  1.0
