# generated using pymatgen
data_LiInBr4
_symmetry_space_group_name_H-M   'P 1'
_cell_length_a   6.70294155
_cell_length_b   7.05296623
_cell_length_c   8.09817923
_cell_angle_alpha   90.00003876
_cell_angle_beta   90.00005640
_cell_angle_gamma   78.32301871
_symmetry_Int_Tables_number   1
_chemical_formula_structural   LiInBr4
_chemical_formula_sum   'Li2 In2 Br8'
_cell_volume   374.92313437
_cell_formula_units_Z   2
loop_
 _symmetry_equiv_pos_site_id
 _symmetry_equiv_pos_as_xyz
  1  'x, y, z'
loop_
 _atom_site_type_symbol
 _atom_site_label
 _atom_site_symmetry_multiplicity
 _atom_site_fract_x
 _atom_site_fract_y
 _atom_site_fract_z
 _atom_site_occupancy
  Li  Li0  1  0.00000270  0.74999989  0.03650698  1.0
  Li  Li1  1  0.99999809  0.24999950  0.96349308  1.0
  In  In2  1  0.49999703  0.74999895  0.63167134  1.0
  In  In3  1  0.49999899  0.24999729  0.36832335  1.0
  Br  Br4  1  0.27034171  0.47095838  0.61152881  1.0
  Br  Br5  1  0.72965977  0.02904384  0.61152897  1.0
  Br  Br6  1  0.72966090  0.52904314  0.38847007  1.0
  Br  Br7  1  0.27034314  0.97095610  0.38847049  1.0
  Br  Br8  1  0.24222076  0.42598103  0.12557579  1.0
  Br  Br9  1  0.75777810  0.07402030  0.12557772  1.0
  Br  Br10  1  0.75778241  0.57401643  0.87442613  1.0
  Br  Br11  1  0.24221640  0.92598515  0.87442727  1.0
