# generated using pymatgen
data_LiIrSe2
_symmetry_space_group_name_H-M   'P 1'
_cell_length_a   3.87568369
_cell_length_b   5.78419807
_cell_length_c   6.71329608
_cell_angle_alpha   89.98640697
_cell_angle_beta   89.99999936
_cell_angle_gamma   90.00000035
_symmetry_Int_Tables_number   1
_chemical_formula_structural   LiIrSe2
_chemical_formula_sum   'Li2 Ir2 Se4'
_cell_volume   150.49680179
_cell_formula_units_Z   2
loop_
 _symmetry_equiv_pos_site_id
 _symmetry_equiv_pos_as_xyz
  1  'x, y, z'
loop_
 _atom_site_type_symbol
 _atom_site_label
 _atom_site_symmetry_multiplicity
 _atom_site_fract_x
 _atom_site_fract_y
 _atom_site_fract_z
 _atom_site_occupancy
  Li  Li0  1  0.25349995  0.49999999  0.74999970  1.0
  Li  Li1  1  0.74650008  0.50000000  0.25000030  1.0
  Ir  Ir2  1  0.74979827  0.00000000  0.24999999  1.0
  Ir  Ir3  1  0.25020171  0.00000001  0.75000001  1.0
  Se  Se4  1  0.24978817  0.21282679  0.08328629  1.0
  Se  Se5  1  0.75021183  0.21282632  0.58328792  1.0
  Se  Se6  1  0.75021181  0.78717365  0.91671208  1.0
  Se  Se7  1  0.24978817  0.78717325  0.41671371  1.0
