# generated using pymatgen
data_LiLaSe2
_symmetry_space_group_name_H-M   'P 1'
_cell_length_a   4.24269052
_cell_length_b   6.98604853
_cell_length_c   7.34500404
_cell_angle_alpha   89.92587760
_cell_angle_beta   89.99996902
_cell_angle_gamma   89.99999604
_symmetry_Int_Tables_number   1
_chemical_formula_structural   LiLaSe2
_chemical_formula_sum   'Li2 La2 Se4'
_cell_volume   217.70310711
_cell_formula_units_Z   2
loop_
 _symmetry_equiv_pos_site_id
 _symmetry_equiv_pos_as_xyz
  1  'x, y, z'
loop_
 _atom_site_type_symbol
 _atom_site_label
 _atom_site_symmetry_multiplicity
 _atom_site_fract_x
 _atom_site_fract_y
 _atom_site_fract_z
 _atom_site_occupancy
  Li  Li0  1  0.25581967  0.49999996  0.74999957  1.0
  Li  Li1  1  0.74418053  0.50000011  0.25000034  1.0
  La  La2  1  0.75022835  0.00000014  0.24999996  1.0
  La  La3  1  0.24977131  0.99999984  0.74999997  1.0
  Se  Se4  1  0.25033046  0.25739170  0.08308943  1.0
  Se  Se5  1  0.74966991  0.25739209  0.58308849  1.0
  Se  Se6  1  0.74966970  0.74260799  0.91691155  1.0
  Se  Se7  1  0.25033006  0.74260818  0.41691068  1.0
