# generated using pymatgen
data_LiTmS2
_symmetry_space_group_name_H-M   'P 1'
_cell_length_a   3.97805322
_cell_length_b   7.03081149
_cell_length_c   7.34404666
_cell_angle_alpha   80.94598021
_cell_angle_beta   90.00056466
_cell_angle_gamma   89.99964155
_symmetry_Int_Tables_number   1
_chemical_formula_structural   LiTmS2
_chemical_formula_sum   'Li2 Tm2 S4'
_cell_volume   202.84595271
_cell_formula_units_Z   2
loop_
 _symmetry_equiv_pos_site_id
 _symmetry_equiv_pos_as_xyz
  1  'x, y, z'
loop_
 _atom_site_type_symbol
 _atom_site_label
 _atom_site_symmetry_multiplicity
 _atom_site_fract_x
 _atom_site_fract_y
 _atom_site_fract_z
 _atom_site_occupancy
  Li  Li0  1  0.00000085  0.03543130  0.78767368  1.0
  Li  Li1  1  0.99999909  0.96456868  0.21232631  1.0
  Tm  Tm2  1  0.50000010  0.50000002  0.00000008  1.0
  Tm  Tm3  1  0.49999993  0.49999998  0.50000003  1.0
  S  S4  1  0.49999845  0.10904049  0.58785617  1.0
  S  S5  1  0.99999841  0.74404493  0.99835525  1.0
  S  S6  1  0.00000171  0.25595512  0.00164466  1.0
  S  S7  1  0.50000146  0.89095948  0.41214381  1.0
