# generated using pymatgen
data_LuHgF4
_symmetry_space_group_name_H-M   'P 1'
_cell_length_a   5.30669802
_cell_length_b   6.53722998
_cell_length_c   5.26885994
_cell_angle_alpha   84.67329308
_cell_angle_beta   89.99654119
_cell_angle_gamma   90.00417102
_symmetry_Int_Tables_number   1
_chemical_formula_structural   LuHgF4
_chemical_formula_sum   'Lu2 Hg2 F8'
_cell_volume   181.99323422
_cell_formula_units_Z   2
loop_
 _symmetry_equiv_pos_site_id
 _symmetry_equiv_pos_as_xyz
  1  'x, y, z'
loop_
 _atom_site_type_symbol
 _atom_site_label
 _atom_site_symmetry_multiplicity
 _atom_site_fract_x
 _atom_site_fract_y
 _atom_site_fract_z
 _atom_site_occupancy
  Lu  Lu0  1  0.23971761  0.49999468  0.74999557  1.0
  Lu  Lu1  1  0.76028171  0.50000541  0.25000425  1.0
  Hg  Hg2  1  0.64952904  0.99999149  0.75030045  1.0
  Hg  Hg3  1  0.35046899  0.00000847  0.24970049  1.0
  F  F4  1  0.43655891  0.67176354  0.04187626  1.0
  F  F5  1  0.94375184  0.69023332  0.93292673  1.0
  F  F6  1  0.94375403  0.30972962  0.56704978  1.0
  F  F7  1  0.43665681  0.32805239  0.45821388  1.0
  F  F8  1  0.56334440  0.67194428  0.54178747  1.0
  F  F9  1  0.05624616  0.69027407  0.43295002  1.0
  F  F10  1  0.05624824  0.30976314  0.06707320  1.0
  F  F11  1  0.56344227  0.32823959  0.95812192  1.0
