# generated using pymatgen
data_LuSbS4
_symmetry_space_group_name_H-M   'P 1'
_cell_length_a   6.82771337
_cell_length_b   5.86314018
_cell_length_c   6.82637672
_cell_angle_alpha   89.66164847
_cell_angle_beta   90.00221948
_cell_angle_gamma   90.00030058
_symmetry_Int_Tables_number   1
_chemical_formula_structural   LuSbS4
_chemical_formula_sum   'Lu2 Sb2 S8'
_cell_volume   273.26765958
_cell_formula_units_Z   2
loop_
 _symmetry_equiv_pos_site_id
 _symmetry_equiv_pos_as_xyz
  1  'x, y, z'
loop_
 _atom_site_type_symbol
 _atom_site_label
 _atom_site_symmetry_multiplicity
 _atom_site_fract_x
 _atom_site_fract_y
 _atom_site_fract_z
 _atom_site_occupancy
  Lu  Lu0  1  0.24833319  0.50000012  0.74999994  1.0
  Lu  Lu1  1  0.75166680  0.50000013  0.25000005  1.0
  Sb  Sb2  1  0.74758600  0.99999525  0.75000843  1.0
  Sb  Sb3  1  0.25241365  0.00000421  0.24999170  1.0
  S  S4  1  0.44862258  0.72575249  0.05000155  1.0
  S  S5  1  0.94819435  0.72751238  0.94710431  1.0
  S  S6  1  0.94819879  0.27249095  0.55289056  1.0
  S  S7  1  0.44861902  0.27424363  0.44999646  1.0
  S  S8  1  0.55138116  0.72575609  0.55000369  1.0
  S  S9  1  0.05180166  0.72750836  0.44710910  1.0
  S  S10  1  0.05180565  0.27248828  0.05289572  1.0
  S  S11  1  0.55137714  0.27424811  0.94999847  1.0
