# generated using pymatgen
data_LuSbTe4
_symmetry_space_group_name_H-M   'P 1'
_cell_length_a   6.62612041
_cell_length_b   7.81637078
_cell_length_c   8.39044287
_cell_angle_alpha   89.97398747
_cell_angle_beta   89.93966373
_cell_angle_gamma   87.31055648
_symmetry_Int_Tables_number   1
_chemical_formula_structural   LuSbTe4
_chemical_formula_sum   'Lu2 Sb2 Te8'
_cell_volume   434.08068476
_cell_formula_units_Z   2
loop_
 _symmetry_equiv_pos_site_id
 _symmetry_equiv_pos_as_xyz
  1  'x, y, z'
loop_
 _atom_site_type_symbol
 _atom_site_label
 _atom_site_symmetry_multiplicity
 _atom_site_fract_x
 _atom_site_fract_y
 _atom_site_fract_z
 _atom_site_occupancy
  Lu  Lu0  1  0.50040474  0.74991649  0.36136812  1.0
  Lu  Lu1  1  0.49959520  0.25008355  0.63863187  1.0
  Sb  Sb2  1  0.00003288  0.75073326  0.83930931  1.0
  Sb  Sb3  1  0.99996714  0.24926671  0.16069069  1.0
  Te  Te4  1  0.68422600  0.46365264  0.91270909  1.0
  Te  Te5  1  0.31577398  0.53634730  0.08729093  1.0
  Te  Te6  1  0.31485551  0.03555529  0.91262401  1.0
  Te  Te7  1  0.68514455  0.96444474  0.08737598  1.0
  Te  Te8  1  0.76610301  0.93344218  0.58602090  1.0
  Te  Te9  1  0.23389696  0.06655779  0.41397913  1.0
  Te  Te10  1  0.23354992  0.56686355  0.58597952  1.0
  Te  Te11  1  0.76645012  0.43313650  0.41402046  1.0
