# generated using pymatgen
data_LuTaTe4
_symmetry_space_group_name_H-M   'P 1'
_cell_length_a   7.04815434
_cell_length_b   7.33130764
_cell_length_c   7.56486081
_cell_angle_alpha   90.00050962
_cell_angle_beta   90.00065313
_cell_angle_gamma   103.81973049
_symmetry_Int_Tables_number   1
_chemical_formula_structural   LuTaTe4
_chemical_formula_sum   'Lu2 Ta2 Te8'
_cell_volume   379.57737166
_cell_formula_units_Z   2
loop_
 _symmetry_equiv_pos_site_id
 _symmetry_equiv_pos_as_xyz
  1  'x, y, z'
loop_
 _atom_site_type_symbol
 _atom_site_label
 _atom_site_symmetry_multiplicity
 _atom_site_fract_x
 _atom_site_fract_y
 _atom_site_fract_z
 _atom_site_occupancy
  Lu  Lu0  1  0.99999986  0.74999998  0.75418634  1.0
  Lu  Lu1  1  0.99999998  0.24999995  0.24581369  1.0
  Ta  Ta2  1  0.49999937  0.24999956  0.67334137  1.0
  Ta  Ta3  1  0.50000067  0.75000044  0.32665879  1.0
  Te  Te4  1  0.74284610  0.00774430  0.56867570  1.0
  Te  Te5  1  0.25715440  0.49225636  0.56867561  1.0
  Te  Te6  1  0.25715401  0.99225585  0.43132433  1.0
  Te  Te7  1  0.74284560  0.50774354  0.43132450  1.0
  Te  Te8  1  0.22830660  0.62423535  0.07574905  1.0
  Te  Te9  1  0.77169265  0.87576464  0.07574995  1.0
  Te  Te10  1  0.77169349  0.37576455  0.92425081  1.0
  Te  Te11  1  0.22830727  0.12423546  0.92424986  1.0
