# generated using pymatgen
data_LuTe2H
_symmetry_space_group_name_H-M   'P 1'
_cell_length_a   6.83436149
_cell_length_b   6.83436840
_cell_length_c   9.63288451
_cell_angle_alpha   101.01840374
_cell_angle_beta   101.01945006
_cell_angle_gamma   101.58466169
_symmetry_Int_Tables_number   1
_chemical_formula_structural   LuTe2H
_chemical_formula_sum   'Lu4 Te8 H4'
_cell_volume   420.14113398
_cell_formula_units_Z   4
loop_
 _symmetry_equiv_pos_site_id
 _symmetry_equiv_pos_as_xyz
  1  'x, y, z'
loop_
 _atom_site_type_symbol
 _atom_site_label
 _atom_site_symmetry_multiplicity
 _atom_site_fract_x
 _atom_site_fract_y
 _atom_site_fract_z
 _atom_site_occupancy
  Lu  Lu0  1  0.74880532  0.65048299  0.56043753  1.0
  Lu  Lu1  1  0.34949896  0.25118930  0.93954357  1.0
  Lu  Lu2  1  0.25119614  0.34951845  0.43956541  1.0
  Lu  Lu3  1  0.65049790  0.74881050  0.06045455  1.0
  Te  Te4  1  0.21261496  0.99843293  0.60470439  1.0
  Te  Te5  1  0.00155462  0.78738682  0.89529721  1.0
  Te  Te6  1  0.78738875  0.00156765  0.39529392  1.0
  Te  Te7  1  0.99844886  0.21261141  0.10470513  1.0
  Te  Te8  1  0.92933981  0.58139184  0.27335329  1.0
  Te  Te9  1  0.41862588  0.07069808  0.22664594  1.0
  Te  Te10  1  0.07065650  0.41860798  0.72664599  1.0
  Te  Te11  1  0.58137542  0.92930297  0.77335402  1.0
  H  H12  1  0.54220944  0.39251398  0.57063312  1.0
  H  H13  1  0.60749859  0.45777764  0.92938269  1.0
  H  H14  1  0.45779302  0.60748365  0.42936943  1.0
  H  H15  1  0.39249582  0.54222381  0.07061380  1.0
