# generated using pymatgen
data_MgCN2
_symmetry_space_group_name_H-M   'P 1'
_cell_length_a   4.63059869
_cell_length_b   4.63285121
_cell_length_c   5.83577532
_cell_angle_alpha   73.16803963
_cell_angle_beta   73.20117142
_cell_angle_gamma   100.66895673
_symmetry_Int_Tables_number   1
_chemical_formula_structural   MgCN2
_chemical_formula_sum   'Mg2 C2 N4'
_cell_volume   109.66907361
_cell_formula_units_Z   2
loop_
 _symmetry_equiv_pos_site_id
 _symmetry_equiv_pos_as_xyz
  1  'x, y, z'
loop_
 _atom_site_type_symbol
 _atom_site_label
 _atom_site_symmetry_multiplicity
 _atom_site_fract_x
 _atom_site_fract_y
 _atom_site_fract_z
 _atom_site_occupancy
  Mg  Mg0  1  0.80500648  0.19506753  0.25001255  1.0
  Mg  Mg1  1  0.19498852  0.80493894  0.74998758  1.0
  C  C2  1  0.17493175  0.82505342  0.24998036  1.0
  C  C3  1  0.82508830  0.17495109  0.75002627  1.0
  N  N4  1  0.01109975  0.67636343  0.16306017  1.0
  N  N5  1  0.32353965  0.98892767  0.33688861  1.0
  N  N6  1  0.98885607  0.32359226  0.83691518  1.0
  N  N7  1  0.67648948  0.01110566  0.66312927  1.0
