# generated using pymatgen
data_MgCoCl4
_symmetry_space_group_name_H-M   'P 1'
_cell_length_a   5.68169798
_cell_length_b   6.35945877
_cell_length_c   6.93133534
_cell_angle_alpha   90.04580848
_cell_angle_beta   90.01343475
_cell_angle_gamma   93.30824183
_symmetry_Int_Tables_number   1
_chemical_formula_structural   MgCoCl4
_chemical_formula_sum   'Mg2 Co2 Cl8'
_cell_volume   250.02918822
_cell_formula_units_Z   2
loop_
 _symmetry_equiv_pos_site_id
 _symmetry_equiv_pos_as_xyz
  1  'x, y, z'
loop_
 _atom_site_type_symbol
 _atom_site_label
 _atom_site_symmetry_multiplicity
 _atom_site_fract_x
 _atom_site_fract_y
 _atom_site_fract_z
 _atom_site_occupancy
  Mg  Mg0  1  0.99993854  0.75001207  0.84790786  1.0
  Mg  Mg1  1  0.00006862  0.24984192  0.14265794  1.0
  Co  Co2  1  0.50026530  0.74977130  0.37264025  1.0
  Co  Co3  1  0.50016544  0.25008687  0.63184723  1.0
  Cl  Cl4  1  0.74508971  0.40935160  0.87427373  1.0
  Cl  Cl5  1  0.23758804  0.58765163  0.12001333  1.0
  Cl  Cl6  1  0.25456485  0.09076309  0.87515028  1.0
  Cl  Cl7  1  0.76197727  0.91216650  0.12026203  1.0
  Cl  Cl8  1  0.73973857  0.92508943  0.61322870  1.0
  Cl  Cl9  1  0.27626516  0.07918587  0.39496770  1.0
  Cl  Cl10  1  0.26031489  0.57503926  0.61298761  1.0
  Cl  Cl11  1  0.72402362  0.42104046  0.39406334  1.0
