# generated using pymatgen
data_MgP2Ir
_symmetry_space_group_name_H-M   'P 1'
_cell_length_a   4.40304555
_cell_length_b   4.40304564
_cell_length_c   4.40304582
_cell_angle_alpha   59.99996398
_cell_angle_beta   59.99996241
_cell_angle_gamma   59.99996399
_symmetry_Int_Tables_number   1
_chemical_formula_structural   MgP2Ir
_chemical_formula_sum   'Mg1 P2 Ir1'
_cell_volume   60.35930254
_cell_formula_units_Z   1
loop_
 _symmetry_equiv_pos_site_id
 _symmetry_equiv_pos_as_xyz
  1  'x, y, z'
loop_
 _atom_site_type_symbol
 _atom_site_label
 _atom_site_symmetry_multiplicity
 _atom_site_fract_x
 _atom_site_fract_y
 _atom_site_fract_z
 _atom_site_occupancy
  Mg  Mg0  1  0.99999999  0.99999999  0.99999998  1.0
  P  P1  1  0.74999996  0.74999996  0.74999997  1.0
  P  P2  1  0.25000005  0.25000007  0.25000004  1.0
  Ir  Ir3  1  0.50000001  0.49999999  0.50000001  1.0
