# generated using pymatgen
data_MgPbF4
_symmetry_space_group_name_H-M   'P 1'
_cell_length_a   5.44948643
_cell_length_b   5.81956104
_cell_length_c   5.83382187
_cell_angle_alpha   89.99999969
_cell_angle_beta   90.00000049
_cell_angle_gamma   91.24112579
_symmetry_Int_Tables_number   1
_chemical_formula_structural   MgPbF4
_chemical_formula_sum   'Mg2 Pb2 F8'
_cell_volume   184.96819875
_cell_formula_units_Z   2
loop_
 _symmetry_equiv_pos_site_id
 _symmetry_equiv_pos_as_xyz
  1  'x, y, z'
loop_
 _atom_site_type_symbol
 _atom_site_label
 _atom_site_symmetry_multiplicity
 _atom_site_fract_x
 _atom_site_fract_y
 _atom_site_fract_z
 _atom_site_occupancy
  Mg  Mg0  1  0.00000001  0.74999999  0.76597825  1.0
  Mg  Mg1  1  0.99999991  0.24999999  0.23402191  1.0
  Pb  Pb2  1  0.49999997  0.74999999  0.25516476  1.0
  Pb  Pb3  1  0.50000000  0.25000001  0.74483520  1.0
  F  F4  1  0.76839238  0.93886615  0.93280982  1.0
  F  F5  1  0.23160732  0.06113371  0.06719011  1.0
  F  F6  1  0.23160769  0.56113380  0.93280979  1.0
  F  F7  1  0.76839269  0.43886635  0.06719011  1.0
  F  F8  1  0.76547294  0.57892932  0.57633334  1.0
  F  F9  1  0.23452727  0.42107060  0.42366670  1.0
  F  F10  1  0.23452705  0.92107071  0.57633327  1.0
  F  F11  1  0.76547277  0.07892938  0.42366674  1.0
