# generated using pymatgen
data_MgTe2Pt
_symmetry_space_group_name_H-M   'P 1'
_cell_length_a   4.04137261
_cell_length_b   7.52692932
_cell_length_c   8.96545376
_cell_angle_alpha   59.92890374
_cell_angle_beta   90.00000213
_cell_angle_gamma   89.99999780
_symmetry_Int_Tables_number   1
_chemical_formula_structural   MgTe2Pt
_chemical_formula_sum   'Mg2 Te4 Pt2'
_cell_volume   236.01415904
_cell_formula_units_Z   2
loop_
 _symmetry_equiv_pos_site_id
 _symmetry_equiv_pos_as_xyz
  1  'x, y, z'
loop_
 _atom_site_type_symbol
 _atom_site_label
 _atom_site_symmetry_multiplicity
 _atom_site_fract_x
 _atom_site_fract_y
 _atom_site_fract_z
 _atom_site_occupancy
  Mg  Mg0  1  0.00000003  0.50000019  0.00000001  1.0
  Mg  Mg1  1  0.99999999  0.49999998  0.50000000  1.0
  Te  Te2  1  0.00000003  0.73712014  0.65262678  1.0
  Te  Te3  1  0.49999998  0.13303081  0.77062951  1.0
  Te  Te4  1  0.50000002  0.86696913  0.22937049  1.0
  Te  Te5  1  0.99999995  0.26287982  0.34737321  1.0
  Pt  Pt6  1  0.49999999  0.99999999  0.50000000  1.0
  Pt  Pt7  1  0.00000001  0.99999992  0.00000000  1.0
