# generated using pymatgen
data_MgTiI4
_symmetry_space_group_name_H-M   'P 1'
_cell_length_a   6.73851230
_cell_length_b   7.31209995
_cell_length_c   8.37367668
_cell_angle_alpha   90.00007379
_cell_angle_beta   90.00001078
_cell_angle_gamma   89.10885361
_symmetry_Int_Tables_number   1
_chemical_formula_structural   MgTiI4
_chemical_formula_sum   'Mg2 Ti2 I8'
_cell_volume   412.54354927
_cell_formula_units_Z   2
loop_
 _symmetry_equiv_pos_site_id
 _symmetry_equiv_pos_as_xyz
  1  'x, y, z'
loop_
 _atom_site_type_symbol
 _atom_site_label
 _atom_site_symmetry_multiplicity
 _atom_site_fract_x
 _atom_site_fract_y
 _atom_site_fract_z
 _atom_site_occupancy
  Mg  Mg0  1  0.49999984  0.74999985  0.36797912  1.0
  Mg  Mg1  1  0.50000018  0.25000014  0.63202009  1.0
  Ti  Ti2  1  0.99999985  0.75000032  0.87391785  1.0
  Ti  Ti3  1  0.00000011  0.24999964  0.12608428  1.0
  I  I4  1  0.75613775  0.42646192  0.88564356  1.0
  I  I5  1  0.24386161  0.57356593  0.11434430  1.0
  I  I6  1  0.24386286  0.07353820  0.88564358  1.0
  I  I7  1  0.75613780  0.92643398  0.11434429  1.0
  I  I8  1  0.74771260  0.92016279  0.62045924  1.0
  I  I9  1  0.25230490  0.07983167  0.37955223  1.0
  I  I10  1  0.25228724  0.57983749  0.62045939  1.0
  I  I11  1  0.74769526  0.42016807  0.37955207  1.0
