# generated using pymatgen
data_MnAuSe4
_symmetry_space_group_name_H-M   'P 1'
_cell_length_a   3.72191993
_cell_length_b   8.96201932
_cell_length_c   8.81418884
_cell_angle_alpha   110.51297190
_cell_angle_beta   89.99998734
_cell_angle_gamma   89.99997010
_symmetry_Int_Tables_number   1
_chemical_formula_structural   MnAuSe4
_chemical_formula_sum   'Mn2 Au2 Se8'
_cell_volume   275.36332893
_cell_formula_units_Z   2
loop_
 _symmetry_equiv_pos_site_id
 _symmetry_equiv_pos_as_xyz
  1  'x, y, z'
loop_
 _atom_site_type_symbol
 _atom_site_label
 _atom_site_symmetry_multiplicity
 _atom_site_fract_x
 _atom_site_fract_y
 _atom_site_fract_z
 _atom_site_occupancy
  Mn  Mn0  1  0.49961059  0.25000002  0.75000022  1.0
  Mn  Mn1  1  0.50038987  0.74999999  0.24999974  1.0
  Au  Au2  1  0.00000060  0.50000912  0.50000909  1.0
  Au  Au3  1  0.00000048  0.99999092  0.99999093  1.0
  Se  Se4  1  0.49988554  0.69735743  0.50455666  1.0
  Se  Se5  1  0.49988532  0.80264260  0.99544392  1.0
  Se  Se6  1  0.99997769  0.95116363  0.34782526  1.0
  Se  Se7  1  0.99997787  0.54883651  0.15217370  1.0
  Se  Se8  1  0.00001509  0.04884741  0.65215848  1.0
  Se  Se9  1  0.00001495  0.45115240  0.84784252  1.0
  Se  Se10  1  0.50012120  0.19734675  0.00454027  1.0
  Se  Se11  1  0.50012080  0.30265322  0.49545920  1.0
