# generated using pymatgen
data_MnHgS2
_symmetry_space_group_name_H-M   'P 1'
_cell_length_a   3.37942570
_cell_length_b   3.37942302
_cell_length_c   8.76736019
_cell_angle_alpha   90.00014218
_cell_angle_beta   89.99967002
_cell_angle_gamma   120.00017101
_symmetry_Int_Tables_number   1
_chemical_formula_structural   MnHgS2
_chemical_formula_sum   'Mn1 Hg1 S2'
_cell_volume   86.71299625
_cell_formula_units_Z   1
loop_
 _symmetry_equiv_pos_site_id
 _symmetry_equiv_pos_as_xyz
  1  'x, y, z'
loop_
 _atom_site_type_symbol
 _atom_site_label
 _atom_site_symmetry_multiplicity
 _atom_site_fract_x
 _atom_site_fract_y
 _atom_site_fract_z
 _atom_site_occupancy
  Mn  Mn0  1  0.00000001  0.00000010  0.99999990  1.0
  Hg  Hg1  1  0.99999956  0.99999960  0.50000030  1.0
  S  S2  1  0.33333333  0.66666667  0.14982720  1.0
  S  S3  1  0.66666667  0.33333333  0.85017259  1.0
