# generated using pymatgen
data_MoPbCl4
_symmetry_space_group_name_H-M   'P 1'
_cell_length_a   7.10916382
_cell_length_b   6.43058171
_cell_length_c   7.90023615
_cell_angle_alpha   89.99857138
_cell_angle_beta   90.00073637
_cell_angle_gamma   82.75283353
_symmetry_Int_Tables_number   1
_chemical_formula_structural   MoPbCl4
_chemical_formula_sum   'Mo2 Pb2 Cl8'
_cell_volume   358.28236050
_cell_formula_units_Z   2
loop_
 _symmetry_equiv_pos_site_id
 _symmetry_equiv_pos_as_xyz
  1  'x, y, z'
loop_
 _atom_site_type_symbol
 _atom_site_label
 _atom_site_symmetry_multiplicity
 _atom_site_fract_x
 _atom_site_fract_y
 _atom_site_fract_z
 _atom_site_occupancy
  Mo  Mo0  1  0.99999938  0.75000030  0.88519639  1.0
  Mo  Mo1  1  0.99999958  0.25000016  0.11480377  1.0
  Pb  Pb2  1  0.49999901  0.75000087  0.44925558  1.0
  Pb  Pb3  1  0.50000109  0.24999915  0.55074463  1.0
  Cl  Cl4  1  0.79959817  0.09611672  0.89472114  1.0
  Cl  Cl5  1  0.20040198  0.90388304  0.10527893  1.0
  Cl  Cl6  1  0.20040042  0.40388403  0.89472043  1.0
  Cl  Cl7  1  0.79959980  0.59611564  0.10527941  1.0
  Cl  Cl8  1  0.80632335  0.61333217  0.66759777  1.0
  Cl  Cl9  1  0.19367708  0.38666765  0.33240199  1.0
  Cl  Cl10  1  0.19367355  0.88666968  0.66759745  1.0
  Cl  Cl11  1  0.80632658  0.11333060  0.33240250  1.0
