# generated using pymatgen
data_Na5BiBr8
_symmetry_space_group_name_H-M   'P 1'
_cell_length_a   10.04970733
_cell_length_b   10.04895996
_cell_length_c   11.72748674
_cell_angle_alpha   75.78211014
_cell_angle_beta   75.78145452
_cell_angle_gamma   23.55220605
_symmetry_Int_Tables_number   1
_chemical_formula_structural   Na5BiBr8
_chemical_formula_sum   'Na5 Bi1 Br8'
_cell_volume   458.10995947
_cell_formula_units_Z   1
loop_
 _symmetry_equiv_pos_site_id
 _symmetry_equiv_pos_as_xyz
  1  'x, y, z'
loop_
 _atom_site_type_symbol
 _atom_site_label
 _atom_site_symmetry_multiplicity
 _atom_site_fract_x
 _atom_site_fract_y
 _atom_site_fract_z
 _atom_site_occupancy
  Na  Na0  1  0.99999771  0.00000168  0.00000518  1.0
  Na  Na1  1  0.31671256  0.31673133  0.02795032  1.0
  Na  Na2  1  0.68328862  0.68327011  0.97204455  1.0
  Na  Na3  1  0.28992375  0.28992838  0.33641148  1.0
  Na  Na4  1  0.71004013  0.71005086  0.66358070  1.0
  Bi  Bi5  1  0.50013325  0.49975859  0.49998699  1.0
  Br  Br6  1  0.57787051  0.57789760  0.85776790  1.0
  Br  Br7  1  0.42211695  0.42210137  0.14224978  1.0
  Br  Br8  1  0.03802600  0.03798069  0.31591167  1.0
  Br  Br9  1  0.96205055  0.96199884  0.68409256  1.0
  Br  Br10  1  0.14549545  0.14554629  0.52080351  1.0
  Br  Br11  1  0.85434476  0.85472968  0.47920095  1.0
  Br  Br12  1  0.26411637  0.26415665  0.82496597  1.0
  Br  Br13  1  0.73588338  0.73584792  0.17502843  1.0
