# generated using pymatgen
data_NaBF4
_symmetry_space_group_name_H-M   'P 1'
_cell_length_a   4.34103101
_cell_length_b   5.33708633
_cell_length_c   6.41632374
_cell_angle_alpha   90.00014015
_cell_angle_beta   89.99993703
_cell_angle_gamma   89.33063781
_symmetry_Int_Tables_number   1
_chemical_formula_structural   NaBF4
_chemical_formula_sum   'Na2 B2 F8'
_cell_volume   148.64617797
_cell_formula_units_Z   2
loop_
 _symmetry_equiv_pos_site_id
 _symmetry_equiv_pos_as_xyz
  1  'x, y, z'
loop_
 _atom_site_type_symbol
 _atom_site_label
 _atom_site_symmetry_multiplicity
 _atom_site_fract_x
 _atom_site_fract_y
 _atom_site_fract_z
 _atom_site_occupancy
  Na  Na0  1  0.49999974  0.25000004  0.28170364  1.0
  Na  Na1  1  0.50000008  0.74999989  0.71829384  1.0
  B  B2  1  0.99999944  0.24999972  0.73438383  1.0
  B  B3  1  0.99999917  0.74999791  0.26557333  1.0
  F  F4  1  0.21034083  0.38980469  0.60826889  1.0
  F  F5  1  0.78965938  0.11019775  0.60826928  1.0
  F  F6  1  0.81720175  0.91710271  0.14318192  1.0
  F  F7  1  0.18279872  0.58289719  0.14318268  1.0
  F  F8  1  0.18276290  0.08293478  0.85679161  1.0
  F  F9  1  0.81723618  0.41706615  0.85679113  1.0
  F  F10  1  0.21041055  0.88985008  0.39177927  1.0
  F  F11  1  0.78959125  0.61014909  0.39177859  1.0
