# generated using pymatgen
data_NaGa5O8
_symmetry_space_group_name_H-M   'P 1'
_cell_length_a   7.67277981
_cell_length_b   7.67277995
_cell_length_c   7.31847588
_cell_angle_alpha   73.54608014
_cell_angle_beta   73.54608050
_cell_angle_gamma   22.91447168
_symmetry_Int_Tables_number   1
_chemical_formula_structural   NaGa5O8
_chemical_formula_sum   'Na1 Ga5 O8'
_cell_volume   160.59592516
_cell_formula_units_Z   1
loop_
 _symmetry_equiv_pos_site_id
 _symmetry_equiv_pos_as_xyz
  1  'x, y, z'
loop_
 _atom_site_type_symbol
 _atom_site_label
 _atom_site_symmetry_multiplicity
 _atom_site_fract_x
 _atom_site_fract_y
 _atom_site_fract_z
 _atom_site_occupancy
  Na  Na0  1  0.49999999  0.50000006  0.50000002  1.0
  Ga  Ga1  1  0.99999998  0.00000002  0.00000000  1.0
  Ga  Ga2  1  0.34988625  0.34988639  0.90923646  1.0
  Ga  Ga3  1  0.65011374  0.65011361  0.09076353  1.0
  Ga  Ga4  1  0.29729333  0.29729331  0.33341502  1.0
  Ga  Ga5  1  0.70270671  0.70270664  0.66658499  1.0
  O  O6  1  0.58507727  0.58507729  0.88553183  1.0
  O  O7  1  0.41492271  0.41492272  0.11446816  1.0
  O  O8  1  0.07232283  0.07232275  0.20336023  1.0
  O  O9  1  0.92767715  0.92767726  0.79663975  1.0
  O  O10  1  0.17074950  0.17074945  0.52737296  1.0
  O  O11  1  0.82925055  0.82925048  0.47262703  1.0
  O  O12  1  0.23750033  0.23750041  0.84766779  1.0
  O  O13  1  0.76249965  0.76249961  0.15233222  1.0
