# generated using pymatgen
data_NaGaO2
_symmetry_space_group_name_H-M   'P 1'
_cell_length_a   6.12798878
_cell_length_b   6.12798902
_cell_length_c   11.40602663
_cell_angle_alpha   82.26279760
_cell_angle_beta   82.26279728
_cell_angle_gamma   89.99604620
_symmetry_Int_Tables_number   1
_chemical_formula_structural   NaGaO2
_chemical_formula_sum   'Na8 Ga8 O16'
_cell_volume   420.48743218
_cell_formula_units_Z   8
loop_
 _symmetry_equiv_pos_site_id
 _symmetry_equiv_pos_as_xyz
  1  'x, y, z'
loop_
 _atom_site_type_symbol
 _atom_site_label
 _atom_site_symmetry_multiplicity
 _atom_site_fract_x
 _atom_site_fract_y
 _atom_site_fract_z
 _atom_site_occupancy
  Na  Na0  1  0.22057144  0.84451893  0.12534542  1.0
  Na  Na1  1  0.15548103  0.77942855  0.37465459  1.0
  Na  Na2  1  0.77942856  0.15548106  0.87465458  1.0
  Na  Na3  1  0.84451892  0.22057148  0.62534542  1.0
  Na  Na4  1  0.65336284  0.77837362  0.38246592  1.0
  Na  Na5  1  0.22162635  0.34663716  0.11753411  1.0
  Na  Na6  1  0.34663714  0.22162642  0.61753408  1.0
  Na  Na7  1  0.77837359  0.65336286  0.88246589  1.0
  Ga  Ga8  1  0.71386617  0.08976287  0.14685261  1.0
  Ga  Ga9  1  0.91023711  0.28613388  0.35314744  1.0
  Ga  Ga10  1  0.28613382  0.91023716  0.85314738  1.0
  Ga  Ga11  1  0.08976283  0.71386613  0.64685260  1.0
  Ga  Ga12  1  0.41352827  0.28627274  0.35289986  1.0
  Ga  Ga13  1  0.71372725  0.58647176  0.14710013  1.0
  Ga  Ga14  1  0.58647174  0.71372730  0.64710013  1.0
  Ga  Ga15  1  0.28627277  0.41352826  0.85289983  1.0
  O  O16  1  0.93477106  0.06522894  0.25000002  1.0
  O  O17  1  0.06522890  0.93477102  0.74999998  1.0
  O  O18  1  0.44090950  0.55909044  0.24999998  1.0
  O  O19  1  0.55909049  0.44090952  0.75000002  1.0
  O  O20  1  0.73669593  0.86219168  0.05137692  1.0
  O  O21  1  0.13780832  0.26330416  0.44862307  1.0
  O  O22  1  0.26330414  0.13780828  0.94862307  1.0
  O  O23  1  0.86219168  0.73669585  0.55137692  1.0
  O  O24  1  0.44104003  0.06521315  0.24998832  1.0
  O  O25  1  0.93478678  0.55896003  0.25001168  1.0
  O  O26  1  0.55895997  0.93478687  0.75001164  1.0
  O  O27  1  0.06521320  0.44103992  0.74998836  1.0
  O  O28  1  0.63709703  0.26185351  0.45269140  1.0
  O  O29  1  0.73814663  0.36290290  0.04730859  1.0
  O  O30  1  0.36290299  0.73814647  0.54730862  1.0
  O  O31  1  0.26185351  0.63709709  0.95269139  1.0
