# generated using pymatgen
data_NaLiCl2
_symmetry_space_group_name_H-M   'P 1'
_cell_length_a   5.03946085
_cell_length_b   5.03942392
_cell_length_c   9.42434937
_cell_angle_alpha   68.41172620
_cell_angle_beta   68.41138095
_cell_angle_gamma   89.64460534
_symmetry_Int_Tables_number   1
_chemical_formula_structural   NaLiCl2
_chemical_formula_sum   'Na2 Li2 Cl4'
_cell_volume   204.61668731
_cell_formula_units_Z   2
loop_
 _symmetry_equiv_pos_site_id
 _symmetry_equiv_pos_as_xyz
  1  'x, y, z'
loop_
 _atom_site_type_symbol
 _atom_site_label
 _atom_site_symmetry_multiplicity
 _atom_site_fract_x
 _atom_site_fract_y
 _atom_site_fract_z
 _atom_site_occupancy
  Na  Na0  1  0.58455539  0.41544605  0.24999848  1.0
  Na  Na1  1  0.41544463  0.58455397  0.75000152  1.0
  Li  Li2  1  0.90690375  0.09309442  0.74999995  1.0
  Li  Li3  1  0.09309616  0.90690551  0.25000009  1.0
  Cl  Cl4  1  0.52085906  0.14829520  0.64989426  1.0
  Cl  Cl5  1  0.85170562  0.47914512  0.85010532  1.0
  Cl  Cl6  1  0.47914099  0.85170483  0.35010571  1.0
  Cl  Cl7  1  0.14829441  0.52085491  0.14989466  1.0
