# generated using pymatgen
data_NaLiCl2
_symmetry_space_group_name_H-M   'P 1'
_cell_length_a   4.02009085
_cell_length_b   6.66405418
_cell_length_c   7.20043124
_cell_angle_alpha   101.23758480
_cell_angle_beta   89.99931905
_cell_angle_gamma   89.99994689
_symmetry_Int_Tables_number   1
_chemical_formula_structural   NaLiCl2
_chemical_formula_sum   'Na2 Li2 Cl4'
_cell_volume   189.20192123
_cell_formula_units_Z   2
loop_
 _symmetry_equiv_pos_site_id
 _symmetry_equiv_pos_as_xyz
  1  'x, y, z'
loop_
 _atom_site_type_symbol
 _atom_site_label
 _atom_site_symmetry_multiplicity
 _atom_site_fract_x
 _atom_site_fract_y
 _atom_site_fract_z
 _atom_site_occupancy
  Na  Na0  1  0.49999992  0.49999961  0.00000014  1.0
  Na  Na1  1  0.49999939  0.50000088  0.50000079  1.0
  Li  Li2  1  0.00000258  0.07805114  0.81464239  1.0
  Li  Li3  1  0.99999751  0.92194887  0.18535759  1.0
  Cl  Cl4  1  0.50000479  0.19740949  0.69919809  1.0
  Cl  Cl5  1  0.00000277  0.72412558  0.83321932  1.0
  Cl  Cl6  1  0.99999725  0.27587402  0.16678018  1.0
  Cl  Cl7  1  0.49999578  0.80259041  0.30080150  1.0
