# generated using pymatgen
data_NaNdI4
_symmetry_space_group_name_H-M   'P 1'
_cell_length_a   8.13469493
_cell_length_b   7.72505029
_cell_length_c   7.84227920
_cell_angle_alpha   90.00000006
_cell_angle_beta   90.00000000
_cell_angle_gamma   99.81837763
_symmetry_Int_Tables_number   1
_chemical_formula_structural   NaNdI4
_chemical_formula_sum   'Na2 Nd2 I8'
_cell_volume   485.59794541
_cell_formula_units_Z   2
loop_
 _symmetry_equiv_pos_site_id
 _symmetry_equiv_pos_as_xyz
  1  'x, y, z'
loop_
 _atom_site_type_symbol
 _atom_site_label
 _atom_site_symmetry_multiplicity
 _atom_site_fract_x
 _atom_site_fract_y
 _atom_site_fract_z
 _atom_site_occupancy
  Na  Na0  1  0.50000000  0.25000000  0.66734018  1.0
  Na  Na1  1  0.50000000  0.75000000  0.33265982  1.0
  Nd  Nd2  1  0.00000000  0.75000000  0.75864943  1.0
  Nd  Nd3  1  0.00000000  0.25000000  0.24135057  1.0
  I  I4  1  0.77593601  0.01397565  0.56773055  1.0
  I  I5  1  0.22406399  0.48602435  0.56773055  1.0
  I  I6  1  0.22406399  0.98602435  0.43226946  1.0
  I  I7  1  0.77593601  0.51397565  0.43226945  1.0
  I  I8  1  0.22137175  0.59143164  0.06705357  1.0
  I  I9  1  0.77862825  0.90856835  0.06705357  1.0
  I  I10  1  0.77862825  0.40856836  0.93294643  1.0
  I  I11  1  0.22137175  0.09143164  0.93294643  1.0
