# generated using pymatgen
data_NaP5Se8
_symmetry_space_group_name_H-M   'P 1'
_cell_length_a   7.84178953
_cell_length_b   7.84178984
_cell_length_c   14.48381241
_cell_angle_alpha   73.42960165
_cell_angle_beta   73.42959973
_cell_angle_gamma   27.03193252
_symmetry_Int_Tables_number   1
_chemical_formula_structural   NaP5Se8
_chemical_formula_sum   'Na1 P5 Se8'
_cell_volume   386.98987942
_cell_formula_units_Z   1
loop_
 _symmetry_equiv_pos_site_id
 _symmetry_equiv_pos_as_xyz
  1  'x, y, z'
loop_
 _atom_site_type_symbol
 _atom_site_label
 _atom_site_symmetry_multiplicity
 _atom_site_fract_x
 _atom_site_fract_y
 _atom_site_fract_z
 _atom_site_occupancy
  Na  Na0  1  0.50000078  0.50000057  0.49999868  1.0
  P  P1  1  0.23001533  0.23001601  0.39327559  1.0
  P  P2  1  0.19251665  0.19251688  0.88968649  1.0
  P  P3  1  0.49999816  0.49999780  0.99999975  1.0
  P  P4  1  0.76998781  0.76998713  0.60672298  1.0
  P  P5  1  0.80747845  0.80747850  0.11032151  1.0
  Se  Se6  1  0.13713815  0.13713838  0.54686891  1.0
  Se  Se7  1  0.33431287  0.33431210  0.68210824  1.0
  Se  Se8  1  0.09453640  0.09453638  0.05257317  1.0
  Se  Se9  1  0.37950837  0.37950851  0.16824730  1.0
  Se  Se10  1  0.66569149  0.66569214  0.31788730  1.0
  Se  Se11  1  0.62048982  0.62048946  0.83175446  1.0
  Se  Se12  1  0.86286154  0.86286216  0.45312726  1.0
  Se  Se13  1  0.90546418  0.90546399  0.94742836  1.0
