# generated using pymatgen
data_NaRh5Se8
_symmetry_space_group_name_H-M   'P 1'
_cell_length_a   6.63420848
_cell_length_b   6.63420839
_cell_length_c   13.28878477
_cell_angle_alpha   77.72477695
_cell_angle_beta   77.72477735
_cell_angle_gamma   32.38866630
_symmetry_Int_Tables_number   1
_chemical_formula_structural   NaRh5Se8
_chemical_formula_sum   'Na1 Rh5 Se8'
_cell_volume   305.51985864
_cell_formula_units_Z   1
loop_
 _symmetry_equiv_pos_site_id
 _symmetry_equiv_pos_as_xyz
  1  'x, y, z'
loop_
 _atom_site_type_symbol
 _atom_site_label
 _atom_site_symmetry_multiplicity
 _atom_site_fract_x
 _atom_site_fract_y
 _atom_site_fract_z
 _atom_site_occupancy
  Na  Na0  1  0.49999992  0.49999992  0.49999967  1.0
  Rh  Rh1  1  0.25787186  0.25787187  0.37296366  1.0
  Rh  Rh2  1  0.25396539  0.25396539  0.87136239  1.0
  Rh  Rh3  1  0.50000015  0.50000015  0.00000056  1.0
  Rh  Rh4  1  0.74212823  0.74212822  0.62703577  1.0
  Rh  Rh5  1  0.74603471  0.74603472  0.12863772  1.0
  Se  Se6  1  0.14874994  0.14874993  0.55767964  1.0
  Se  Se7  1  0.34847099  0.34847100  0.68916551  1.0
  Se  Se8  1  0.12686039  0.12686039  0.04441550  1.0
  Se  Se9  1  0.35471622  0.35471624  0.17158257  1.0
  Se  Se10  1  0.65152835  0.65152834  0.31083450  1.0
  Se  Se11  1  0.64528331  0.64528330  0.82841844  1.0
  Se  Se12  1  0.85125058  0.85125059  0.44231946  1.0
  Se  Se13  1  0.87313994  0.87313994  0.95558460  1.0
