# generated using pymatgen
data_NaSbAu2
_symmetry_space_group_name_H-M   'P 1'
_cell_length_a   5.89943731
_cell_length_b   5.89943770
_cell_length_c   6.31683938
_cell_angle_alpha   68.23790181
_cell_angle_beta   111.76213553
_cell_angle_gamma   80.81596198
_symmetry_Int_Tables_number   1
_chemical_formula_structural   NaSbAu2
_chemical_formula_sum   'Na2 Sb2 Au4'
_cell_volume   178.02613796
_cell_formula_units_Z   2
loop_
 _symmetry_equiv_pos_site_id
 _symmetry_equiv_pos_as_xyz
  1  'x, y, z'
loop_
 _atom_site_type_symbol
 _atom_site_label
 _atom_site_symmetry_multiplicity
 _atom_site_fract_x
 _atom_site_fract_y
 _atom_site_fract_z
 _atom_site_occupancy
  Na  Na0  1  0.24803276  0.24803293  0.74999998  1.0
  Na  Na1  1  0.75196725  0.75196708  0.25000002  1.0
  Sb  Sb2  1  0.85289985  0.85289997  0.74999999  1.0
  Sb  Sb3  1  0.14710016  0.14710005  0.25000001  1.0
  Au  Au4  1  0.36178850  0.73244739  0.75828702  1.0
  Au  Au5  1  0.26755258  0.63821154  0.25828712  1.0
  Au  Au6  1  0.73244741  0.36178845  0.74171291  1.0
  Au  Au7  1  0.63821149  0.26755261  0.24171295  1.0
