# generated using pymatgen
data_NaSb5O8
_symmetry_space_group_name_H-M   'P 1'
_cell_length_a   8.79180401
_cell_length_b   8.79180390
_cell_length_c   8.42892886
_cell_angle_alpha   68.25435680
_cell_angle_beta   68.25435691
_cell_angle_gamma   21.91800320
_symmetry_Int_Tables_number   1
_chemical_formula_structural   NaSb5O8
_chemical_formula_sum   'Na1 Sb5 O8'
_cell_volume   225.21788180
_cell_formula_units_Z   1
loop_
 _symmetry_equiv_pos_site_id
 _symmetry_equiv_pos_as_xyz
  1  'x, y, z'
loop_
 _atom_site_type_symbol
 _atom_site_label
 _atom_site_symmetry_multiplicity
 _atom_site_fract_x
 _atom_site_fract_y
 _atom_site_fract_z
 _atom_site_occupancy
  Na  Na0  1  0.50000208  0.49999807  0.50000027  1.0
  Sb  Sb1  1  0.99992127  0.00007865  0.99999997  1.0
  Sb  Sb2  1  0.35424997  0.35425563  0.87873982  1.0
  Sb  Sb3  1  0.64574435  0.64574979  0.12126030  1.0
  Sb  Sb4  1  0.30936579  0.30935843  0.31105245  1.0
  Sb  Sb5  1  0.69064160  0.69063428  0.68894759  1.0
  O  O6  1  0.55459551  0.55452694  0.80153623  1.0
  O  O7  1  0.44547304  0.44540454  0.19846379  1.0
  O  O8  1  0.09962121  0.09961821  0.28577087  1.0
  O  O9  1  0.90038169  0.90037891  0.71422926  1.0
  O  O10  1  0.18530841  0.18530243  0.53855309  1.0
  O  O11  1  0.81469757  0.81469161  0.46144701  1.0
  O  O12  1  0.24375187  0.24375436  0.85742479  1.0
  O  O13  1  0.75624564  0.75624816  0.14257456  1.0
