# generated using pymatgen
data_NaTiS2
_symmetry_space_group_name_H-M   'P 1'
_cell_length_a   3.54282349
_cell_length_b   3.54282304
_cell_length_c   6.90817136
_cell_angle_alpha   89.99998479
_cell_angle_beta   90.00002008
_cell_angle_gamma   120.00005906
_symmetry_Int_Tables_number   1
_chemical_formula_structural   NaTiS2
_chemical_formula_sum   'Na1 Ti1 S2'
_cell_volume   75.09178897
_cell_formula_units_Z   1
loop_
 _symmetry_equiv_pos_site_id
 _symmetry_equiv_pos_as_xyz
  1  'x, y, z'
loop_
 _atom_site_type_symbol
 _atom_site_label
 _atom_site_symmetry_multiplicity
 _atom_site_fract_x
 _atom_site_fract_y
 _atom_site_fract_z
 _atom_site_occupancy
  Na  Na0  1  0.00000001  0.00000001  0.49999999  1.0
  Ti  Ti1  1  0.00000000  0.00000000  0.00000000  1.0
  S  S2  1  0.33333333  0.66666667  0.21003536  1.0
  S  S3  1  0.66666667  0.33333333  0.78996464  1.0
