# generated using pymatgen
data_NaYbN
_symmetry_space_group_name_H-M   'P 1'
_cell_length_a   4.09864566
_cell_length_b   4.09864574
_cell_length_c   4.09864564
_cell_angle_alpha   59.99991712
_cell_angle_beta   59.99991488
_cell_angle_gamma   59.99990491
_symmetry_Int_Tables_number   1
_chemical_formula_structural   NaYbN
_chemical_formula_sum   'Na1 Yb1 N1'
_cell_volume   48.68613138
_cell_formula_units_Z   1
loop_
 _symmetry_equiv_pos_site_id
 _symmetry_equiv_pos_as_xyz
  1  'x, y, z'
loop_
 _atom_site_type_symbol
 _atom_site_label
 _atom_site_symmetry_multiplicity
 _atom_site_fract_x
 _atom_site_fract_y
 _atom_site_fract_z
 _atom_site_occupancy
  Na  Na0  1  0.99999999  0.00000004  0.00000001  1.0
  Yb  Yb1  1  0.50000000  0.50000003  0.50000000  1.0
  N  N2  1  0.25000001  0.24999994  0.24999999  1.0
