# generated using pymatgen
data_NaYbSe2
_symmetry_space_group_name_H-M   'P 1'
_cell_length_a   9.88029685
_cell_length_b   9.88044087
_cell_length_c   6.21530952
_cell_angle_alpha   78.07105576
_cell_angle_beta   78.07360638
_cell_angle_gamma   127.66928687
_symmetry_Int_Tables_number   1
_chemical_formula_structural   NaYbSe2
_chemical_formula_sum   'Na4 Yb4 Se8'
_cell_volume   424.25425100
_cell_formula_units_Z   4
loop_
 _symmetry_equiv_pos_site_id
 _symmetry_equiv_pos_as_xyz
  1  'x, y, z'
loop_
 _atom_site_type_symbol
 _atom_site_label
 _atom_site_symmetry_multiplicity
 _atom_site_fract_x
 _atom_site_fract_y
 _atom_site_fract_z
 _atom_site_occupancy
  Na  Na0  1  0.03922577  0.96077345  0.25000118  1.0
  Na  Na1  1  0.85163386  0.14836681  0.24999808  1.0
  Na  Na2  1  0.14836613  0.85163321  0.75000193  1.0
  Na  Na3  1  0.96077420  0.03922657  0.74999884  1.0
  Yb  Yb4  1  0.56069146  0.43930924  0.24999905  1.0
  Yb  Yb5  1  0.30456192  0.69543735  0.25000016  1.0
  Yb  Yb6  1  0.69543809  0.30456264  0.74999981  1.0
  Yb  Yb7  1  0.43930854  0.56069075  0.75000095  1.0
  Se  Se8  1  0.53193286  0.95338289  0.67856146  1.0
  Se  Se9  1  0.34472413  0.20873585  0.78781632  1.0
  Se  Se10  1  0.95338198  0.53193705  0.17856800  1.0
  Se  Se11  1  0.20873538  0.34472453  0.28782057  1.0
  Se  Se12  1  0.79126462  0.65527547  0.71217943  1.0
  Se  Se13  1  0.04661804  0.46806295  0.82143196  1.0
  Se  Se14  1  0.65527588  0.79126415  0.21218369  1.0
  Se  Se15  1  0.46806714  0.04661710  0.32143857  1.0
