# generated using pymatgen
data_NbAuS4
_symmetry_space_group_name_H-M   'P 1'
_cell_length_a   3.65501655
_cell_length_b   9.46410887
_cell_length_c   8.53880282
_cell_angle_alpha   90.78165798
_cell_angle_beta   89.99973795
_cell_angle_gamma   90.00033425
_symmetry_Int_Tables_number   1
_chemical_formula_structural   NbAuS4
_chemical_formula_sum   'Nb2 Au2 S8'
_cell_volume   295.34229405
_cell_formula_units_Z   2
loop_
 _symmetry_equiv_pos_site_id
 _symmetry_equiv_pos_as_xyz
  1  'x, y, z'
loop_
 _atom_site_type_symbol
 _atom_site_label
 _atom_site_symmetry_multiplicity
 _atom_site_fract_x
 _atom_site_fract_y
 _atom_site_fract_z
 _atom_site_occupancy
  Nb  Nb0  1  0.49491378  0.24999870  0.75000005  1.0
  Nb  Nb1  1  0.50508281  0.75000060  0.25000029  1.0
  Au  Au2  1  0.00001244  0.49997064  0.50004272  1.0
  Au  Au3  1  0.00001283  0.00003010  0.99995651  1.0
  S  S4  1  0.67939884  0.72206970  0.52000322  1.0
  S  S5  1  0.67940577  0.77792762  0.97999748  1.0
  S  S6  1  0.06198909  0.94220120  0.27305315  1.0
  S  S7  1  0.06198477  0.55780068  0.22694717  1.0
  S  S8  1  0.93801676  0.05778588  0.72698638  1.0
  S  S9  1  0.93802158  0.44221236  0.77301400  1.0
  S  S10  1  0.32057684  0.22205269  0.02001276  1.0
  S  S11  1  0.32058451  0.27794983  0.47998629  1.0
