# generated using pymatgen
data_NbAuCl4
_symmetry_space_group_name_H-M   'P 1'
_cell_length_a   3.34031720
_cell_length_b   10.44213373
_cell_length_c   10.32079991
_cell_angle_alpha   101.31253205
_cell_angle_beta   90.00098868
_cell_angle_gamma   90.00833827
_symmetry_Int_Tables_number   1
_chemical_formula_structural   NbAuCl4
_chemical_formula_sum   'Nb2 Au2 Cl8'
_cell_volume   352.99593403
_cell_formula_units_Z   2
loop_
 _symmetry_equiv_pos_site_id
 _symmetry_equiv_pos_as_xyz
  1  'x, y, z'
loop_
 _atom_site_type_symbol
 _atom_site_label
 _atom_site_symmetry_multiplicity
 _atom_site_fract_x
 _atom_site_fract_y
 _atom_site_fract_z
 _atom_site_occupancy
  Nb  Nb0  1  0.02575836  0.25008674  0.75001394  1.0
  Nb  Nb1  1  0.97423808  0.74991803  0.24998705  1.0
  Au  Au2  1  0.99999939  0.49999547  0.50000083  1.0
  Au  Au3  1  0.00000067  0.99999878  0.99999979  1.0
  Cl  Cl4  1  0.97701022  0.71928562  0.48543409  1.0
  Cl  Cl5  1  0.97696873  0.78073734  0.01455767  1.0
  Cl  Cl6  1  0.47462454  0.93158228  0.31416736  1.0
  Cl  Cl7  1  0.47451533  0.56849722  0.18586936  1.0
  Cl  Cl8  1  0.52536708  0.06842399  0.68582880  1.0
  Cl  Cl9  1  0.52548579  0.43149155  0.81413238  1.0
  Cl  Cl10  1  0.02303734  0.21925070  0.98544131  1.0
  Cl  Cl11  1  0.02299448  0.28073226  0.51456741  1.0
