# generated using pymatgen
data_NbHBr4
_symmetry_space_group_name_H-M   'P 1'
_cell_length_a   7.89707850
_cell_length_b   7.31993690
_cell_length_c   6.90999619
_cell_angle_alpha   75.69053112
_cell_angle_beta   90.00000323
_cell_angle_gamma   89.99998394
_symmetry_Int_Tables_number   1
_chemical_formula_structural   NbHBr4
_chemical_formula_sum   'Nb2 H2 Br8'
_cell_volume   387.04737554
_cell_formula_units_Z   2
loop_
 _symmetry_equiv_pos_site_id
 _symmetry_equiv_pos_as_xyz
  1  'x, y, z'
loop_
 _atom_site_type_symbol
 _atom_site_label
 _atom_site_symmetry_multiplicity
 _atom_site_fract_x
 _atom_site_fract_y
 _atom_site_fract_z
 _atom_site_occupancy
  Nb  Nb0  1  0.65199920  0.50000005  0.75000008  1.0
  Nb  Nb1  1  0.34788643  0.49999996  0.24999993  1.0
  H  H2  1  0.23635929  0.99999997  0.74999994  1.0
  H  H3  1  0.76367481  0.99999999  0.24999999  1.0
  Br  Br4  1  0.85719067  0.25683722  0.91976243  1.0
  Br  Br5  1  0.39544803  0.30360452  0.97905976  1.0
  Br  Br6  1  0.39544789  0.69639558  0.52093987  1.0
  Br  Br7  1  0.85719057  0.74316292  0.58023788  1.0
  Br  Br8  1  0.14276745  0.25680772  0.41975055  1.0
  Br  Br9  1  0.60463435  0.30359480  0.47909793  1.0
  Br  Br10  1  0.60463410  0.69640519  0.02090240  1.0
  Br  Br11  1  0.14276720  0.74319208  0.08024923  1.0
