# generated using pymatgen
data_NbHI4
_symmetry_space_group_name_H-M   'P 1'
_cell_length_a   9.74000440
_cell_length_b   7.91556929
_cell_length_c   7.56645064
_cell_angle_alpha   59.76835023
_cell_angle_beta   90.00047843
_cell_angle_gamma   89.99991824
_symmetry_Int_Tables_number   1
_chemical_formula_structural   NbHI4
_chemical_formula_sum   'Nb2 H2 I8'
_cell_volume   504.01753732
_cell_formula_units_Z   2
loop_
 _symmetry_equiv_pos_site_id
 _symmetry_equiv_pos_as_xyz
  1  'x, y, z'
loop_
 _atom_site_type_symbol
 _atom_site_label
 _atom_site_symmetry_multiplicity
 _atom_site_fract_x
 _atom_site_fract_y
 _atom_site_fract_z
 _atom_site_occupancy
  Nb  Nb0  1  0.60783804  0.49999992  0.75000060  1.0
  Nb  Nb1  1  0.39216671  0.50000003  0.24999934  1.0
  H  H2  1  0.20733823  0.00000067  0.74999935  1.0
  H  H3  1  0.79266318  0.99999964  0.25000033  1.0
  I  I4  1  0.83008954  0.24038792  0.99204382  1.0
  I  I5  1  0.40341639  0.27601151  0.04479668  1.0
  I  I6  1  0.40341435  0.72398967  0.45520216  1.0
  I  I7  1  0.83008807  0.75961050  0.50795725  1.0
  I  I8  1  0.16991357  0.24039263  0.49204477  1.0
  I  I9  1  0.59658077  0.27600983  0.54478969  1.0
  I  I10  1  0.59657883  0.72398885  0.95521162  1.0
  I  I11  1  0.16991230  0.75960881  0.00795438  1.0
