# generated using pymatgen
data_NbO2F
_symmetry_space_group_name_H-M   'P 1'
_cell_length_a   4.48495717
_cell_length_b   4.48465749
_cell_length_c   5.24773400
_cell_angle_alpha   77.18362305
_cell_angle_beta   77.18484008
_cell_angle_gamma   68.37182017
_symmetry_Int_Tables_number   1
_chemical_formula_structural   NbO2F
_chemical_formula_sum   'Nb2 O4 F2'
_cell_volume   94.52571121
_cell_formula_units_Z   2
loop_
 _symmetry_equiv_pos_site_id
 _symmetry_equiv_pos_as_xyz
  1  'x, y, z'
loop_
 _atom_site_type_symbol
 _atom_site_label
 _atom_site_symmetry_multiplicity
 _atom_site_fract_x
 _atom_site_fract_y
 _atom_site_fract_z
 _atom_site_occupancy
  Nb  Nb0  1  0.32774278  0.67227130  0.75000154  1.0
  Nb  Nb1  1  0.67225720  0.32772869  0.24999825  1.0
  O  O2  1  0.37649360  0.29042338  0.61186660  1.0
  O  O3  1  0.62350641  0.70957661  0.38813310  1.0
  O  O4  1  0.29043743  0.37648667  0.11186075  1.0
  O  O5  1  0.70956255  0.62351334  0.88813899  1.0
  F  F6  1  0.00000001  0.00000002  0.99999989  1.0
  F  F7  1  0.00000002  0.99999999  0.49999987  1.0
