# generated using pymatgen
data_NbTe4Ir
_symmetry_space_group_name_H-M   'P 1'
_cell_length_a   5.86601741
_cell_length_b   6.90595877
_cell_length_c   7.82634074
_cell_angle_alpha   90.00000335
_cell_angle_beta   89.99999969
_cell_angle_gamma   91.13722638
_symmetry_Int_Tables_number   1
_chemical_formula_structural   NbTe4Ir
_chemical_formula_sum   'Nb2 Te8 Ir2'
_cell_volume   316.98632631
_cell_formula_units_Z   2
loop_
 _symmetry_equiv_pos_site_id
 _symmetry_equiv_pos_as_xyz
  1  'x, y, z'
loop_
 _atom_site_type_symbol
 _atom_site_label
 _atom_site_symmetry_multiplicity
 _atom_site_fract_x
 _atom_site_fract_y
 _atom_site_fract_z
 _atom_site_occupancy
  Nb  Nb0  1  0.49999999  0.75000004  0.38464122  1.0
  Nb  Nb1  1  0.50000001  0.24999997  0.61535475  1.0
  Te  Te2  1  0.73309085  0.42941351  0.89358095  1.0
  Te  Te3  1  0.26691342  0.57058915  0.10642316  1.0
  Te  Te4  1  0.26690916  0.07058647  0.89358096  1.0
  Te  Te5  1  0.73308657  0.92941086  0.10642314  1.0
  Te  Te6  1  0.78585821  0.93063504  0.61827930  1.0
  Te  Te7  1  0.21413903  0.06935544  0.38171822  1.0
  Te  Te8  1  0.21414183  0.56936496  0.61827929  1.0
  Te  Te9  1  0.78586093  0.43064458  0.38171823  1.0
  Ir  Ir10  1  0.00000000  0.74999999  0.87548739  1.0
  Ir  Ir11  1  0.00000000  0.25000000  0.12451338  1.0
