# generated using pymatgen
data_NdAgS2
_symmetry_space_group_name_H-M   'P 1'
_cell_length_a   4.32269046
_cell_length_b   7.48319286
_cell_length_c   7.96255493
_cell_angle_alpha   72.06744690
_cell_angle_beta   90.00000028
_cell_angle_gamma   90.00000004
_symmetry_Int_Tables_number   1
_chemical_formula_structural   NdAgS2
_chemical_formula_sum   'Nd2 Ag2 S4'
_cell_volume   245.05615871
_cell_formula_units_Z   2
loop_
 _symmetry_equiv_pos_site_id
 _symmetry_equiv_pos_as_xyz
  1  'x, y, z'
loop_
 _atom_site_type_symbol
 _atom_site_label
 _atom_site_symmetry_multiplicity
 _atom_site_fract_x
 _atom_site_fract_y
 _atom_site_fract_z
 _atom_site_occupancy
  Nd  Nd0  1  0.50000000  0.50000000  0.00000000  1.0
  Nd  Nd1  1  0.00000000  0.00000000  0.00000000  1.0
  Ag  Ag2  1  0.50000001  0.00000000  0.50000000  1.0
  Ag  Ag3  1  0.99999999  0.50000000  0.50000000  1.0
  S  S4  1  0.00000000  0.60527832  0.18796189  1.0
  S  S5  1  0.00000000  0.39472168  0.81203811  1.0
  S  S6  1  0.50000000  0.10501459  0.18791689  1.0
  S  S7  1  0.50000000  0.89498541  0.81208311  1.0
