# generated using pymatgen
data_NdCuH4
_symmetry_space_group_name_H-M   'P 1'
_cell_length_a   4.69840152
_cell_length_b   5.34422434
_cell_length_c   5.36691106
_cell_angle_alpha   89.99996226
_cell_angle_beta   89.99996169
_cell_angle_gamma   99.14527769
_symmetry_Int_Tables_number   1
_chemical_formula_structural   NdCuH4
_chemical_formula_sum   'Nd2 Cu2 H8'
_cell_volume   133.04645035
_cell_formula_units_Z   2
loop_
 _symmetry_equiv_pos_site_id
 _symmetry_equiv_pos_as_xyz
  1  'x, y, z'
loop_
 _atom_site_type_symbol
 _atom_site_label
 _atom_site_symmetry_multiplicity
 _atom_site_fract_x
 _atom_site_fract_y
 _atom_site_fract_z
 _atom_site_occupancy
  Nd  Nd0  1  0.99999987  0.75000005  0.75599007  1.0
  Nd  Nd1  1  0.00000011  0.24999996  0.24401177  1.0
  Cu  Cu2  1  0.50000033  0.25000018  0.67516932  1.0
  Cu  Cu3  1  0.49999970  0.74999975  0.32481067  1.0
  H  H4  1  0.72388522  0.00270301  0.55113993  1.0
  H  H5  1  0.27611476  0.49729750  0.55113956  1.0
  H  H6  1  0.27618739  0.99732000  0.44887384  1.0
  H  H7  1  0.72381265  0.50267954  0.44887419  1.0
  H  H8  1  0.25363925  0.62204948  0.10240882  1.0
  H  H9  1  0.74636073  0.87795054  0.10240919  1.0
  H  H10  1  0.74636771  0.37794254  0.89758650  1.0
  H  H11  1  0.25363228  0.12205744  0.89758614  1.0
