# generated using pymatgen
data_NdTeI
_symmetry_space_group_name_H-M   'P 1'
_cell_length_a   5.47247210
_cell_length_b   5.47247245
_cell_length_c   5.47247221
_cell_angle_alpha   59.99999577
_cell_angle_beta   59.99999781
_cell_angle_gamma   59.99999775
_symmetry_Int_Tables_number   1
_chemical_formula_structural   NdTeI
_chemical_formula_sum   'Nd1 Te1 I1'
_cell_volume   115.88725569
_cell_formula_units_Z   1
loop_
 _symmetry_equiv_pos_site_id
 _symmetry_equiv_pos_as_xyz
  1  'x, y, z'
loop_
 _atom_site_type_symbol
 _atom_site_label
 _atom_site_symmetry_multiplicity
 _atom_site_fract_x
 _atom_site_fract_y
 _atom_site_fract_z
 _atom_site_occupancy
  Nd  Nd0  1  0.00000002  0.99999999  0.00000001  1.0
  Te  Te1  1  0.74999999  0.75000000  0.75000000  1.0
  I  I2  1  0.24999999  0.25000002  0.24999999  1.0
