# generated using pymatgen
data_NiGeS2
_symmetry_space_group_name_H-M   'P 1'
_cell_length_a   3.47576607
_cell_length_b   3.47745211
_cell_length_c   12.37296917
_cell_angle_alpha   90.07682290
_cell_angle_beta   89.97377798
_cell_angle_gamma   120.18802743
_symmetry_Int_Tables_number   1
_chemical_formula_structural   NiGeS2
_chemical_formula_sum   'Ni2 Ge2 S4'
_cell_volume   129.26765800
_cell_formula_units_Z   2
loop_
 _symmetry_equiv_pos_site_id
 _symmetry_equiv_pos_as_xyz
  1  'x, y, z'
loop_
 _atom_site_type_symbol
 _atom_site_label
 _atom_site_symmetry_multiplicity
 _atom_site_fract_x
 _atom_site_fract_y
 _atom_site_fract_z
 _atom_site_occupancy
  Ni  Ni0  1  0.00016429  0.00030720  0.49999755  1.0
  Ni  Ni1  1  0.99987556  0.99972030  0.00000179  1.0
  Ge  Ge2  1  0.66422581  0.33413792  0.24995352  1.0
  Ge  Ge3  1  0.33561573  0.66574989  0.75004548  1.0
  S  S4  1  0.33878401  0.66556324  0.39715339  1.0
  S  S5  1  0.66156470  0.33506311  0.60284247  1.0
  S  S6  1  0.66125185  0.32946627  0.89714415  1.0
  S  S7  1  0.33851804  0.66999208  0.10286165  1.0
