# generated using pymatgen
data_PbSeF2
_symmetry_space_group_name_H-M   'P 1'
_cell_length_a   3.92836358
_cell_length_b   3.92947427
_cell_length_c   14.52484496
_cell_angle_alpha   89.77707438
_cell_angle_beta   90.21117907
_cell_angle_gamma   119.85055346
_symmetry_Int_Tables_number   1
_chemical_formula_structural   PbSeF2
_chemical_formula_sum   'Pb2 Se2 F4'
_cell_volume   194.46262238
_cell_formula_units_Z   2
loop_
 _symmetry_equiv_pos_site_id
 _symmetry_equiv_pos_as_xyz
  1  'x, y, z'
loop_
 _atom_site_type_symbol
 _atom_site_label
 _atom_site_symmetry_multiplicity
 _atom_site_fract_x
 _atom_site_fract_y
 _atom_site_fract_z
 _atom_site_occupancy
  Pb  Pb0  1  0.66690671  0.33312812  0.10225282  1.0
  Pb  Pb1  1  0.33308276  0.66688503  0.89780390  1.0
  Se  Se2  1  0.33296509  0.66728368  0.59621958  1.0
  Se  Se3  1  0.66713106  0.33264771  0.40374217  1.0
  F  F4  1  0.66620277  0.33376818  0.62929968  1.0
  F  F5  1  0.33372811  0.66626926  0.37066720  1.0
  F  F6  1  0.33354059  0.66657264  0.16584060  1.0
  F  F7  1  0.66644290  0.33344538  0.83417406  1.0
