# generated using pymatgen
data_PICl2
_symmetry_space_group_name_H-M   'P 1'
_cell_length_a   8.71031230
_cell_length_b   9.90247588
_cell_length_c   11.55531553
_cell_angle_alpha   115.39749005
_cell_angle_beta   111.23494339
_cell_angle_gamma   89.99209029
_symmetry_Int_Tables_number   1
_chemical_formula_structural   PICl2
_chemical_formula_sum   'P4 I4 Cl8'
_cell_volume   824.85066465
_cell_formula_units_Z   4
loop_
 _symmetry_equiv_pos_site_id
 _symmetry_equiv_pos_as_xyz
  1  'x, y, z'
loop_
 _atom_site_type_symbol
 _atom_site_label
 _atom_site_symmetry_multiplicity
 _atom_site_fract_x
 _atom_site_fract_y
 _atom_site_fract_z
 _atom_site_occupancy
  P  P0  1  0.20529810  0.96624029  0.62094465  1.0
  P  P1  1  0.29494864  0.34530198  0.37896363  1.0
  P  P2  1  0.79485332  0.03362767  0.37915146  1.0
  P  P3  1  0.70508448  0.65493689  0.62106880  1.0
  I  I4  1  0.31377699  0.75885656  0.14149131  1.0
  I  I5  1  0.18545398  0.61706427  0.85782049  1.0
  I  I6  1  0.68606953  0.24091696  0.85831217  1.0
  I  I7  1  0.81420445  0.38288267  0.14197919  1.0
  Cl  Cl8  1  0.20741088  0.10146376  0.81559089  1.0
  Cl  Cl9  1  0.29278968  0.28608249  0.18439885  1.0
  Cl  Cl10  1  0.79253912  0.89835237  0.18448152  1.0
  Cl  Cl11  1  0.70715356  0.71418490  0.81564341  1.0
  Cl  Cl12  1  0.16554523  0.10675656  0.52903680  1.0
  Cl  Cl13  1  0.33453861  0.57777190  0.47106853  1.0
  Cl  Cl14  1  0.83455947  0.89312633  0.47103395  1.0
  Cl  Cl15  1  0.66577396  0.42243439  0.52901433  1.0
