# generated using pymatgen
data_Pr2SbP
_symmetry_space_group_name_H-M   'P 1'
_cell_length_a   5.39034317
_cell_length_b   5.39034185
_cell_length_c   5.39034442
_cell_angle_alpha   60.00001201
_cell_angle_beta   60.00001443
_cell_angle_gamma   59.99999979
_symmetry_Int_Tables_number   1
_chemical_formula_structural   Pr2SbP
_chemical_formula_sum   'Pr2 Sb1 P1'
_cell_volume   110.74760101
_cell_formula_units_Z   1
loop_
 _symmetry_equiv_pos_site_id
 _symmetry_equiv_pos_as_xyz
  1  'x, y, z'
loop_
 _atom_site_type_symbol
 _atom_site_label
 _atom_site_symmetry_multiplicity
 _atom_site_fract_x
 _atom_site_fract_y
 _atom_site_fract_z
 _atom_site_occupancy
  Pr  Pr0  1  0.25000002  0.25000008  0.25000001  1.0
  Pr  Pr1  1  0.75000004  0.74999995  0.74999998  1.0
  Sb  Sb2  1  0.99999999  0.99999995  0.00000003  1.0
  P  P3  1  0.49999996  0.50000001  0.49999998  1.0
