# generated using pymatgen
data_PrBr2F
_symmetry_space_group_name_H-M   'P 1'
_cell_length_a   6.93161698
_cell_length_b   6.93161346
_cell_length_c   7.81783895
_cell_angle_alpha   59.45459675
_cell_angle_beta   59.45547094
_cell_angle_gamma   67.62145932
_symmetry_Int_Tables_number   1
_chemical_formula_structural   PrBr2F
_chemical_formula_sum   'Pr2 Br4 F2'
_cell_volume   274.78616452
_cell_formula_units_Z   2
loop_
 _symmetry_equiv_pos_site_id
 _symmetry_equiv_pos_as_xyz
  1  'x, y, z'
loop_
 _atom_site_type_symbol
 _atom_site_label
 _atom_site_symmetry_multiplicity
 _atom_site_fract_x
 _atom_site_fract_y
 _atom_site_fract_z
 _atom_site_occupancy
  Pr  Pr0  1  0.50000001  0.00000000  0.49999999  1.0
  Pr  Pr1  1  0.00000000  0.50000001  0.99999999  1.0
  Br  Br2  1  0.28024989  0.10755972  0.21701678  1.0
  Br  Br3  1  0.89244187  0.71974920  0.28298312  1.0
  Br  Br4  1  0.10755813  0.28025074  0.71701692  1.0
  Br  Br5  1  0.71975010  0.89244031  0.78298319  1.0
  F  F6  1  0.30162819  0.69837369  0.74999906  1.0
  F  F7  1  0.69837180  0.30162633  0.25000096  1.0
