# generated using pymatgen
data_PrH2F
_symmetry_space_group_name_H-M   'P 1'
_cell_length_a   6.21613573
_cell_length_b   6.21615439
_cell_length_c   4.56105973
_cell_angle_alpha   44.93338296
_cell_angle_beta   44.93355265
_cell_angle_gamma   58.73633277
_symmetry_Int_Tables_number   1
_chemical_formula_structural   PrH2F
_chemical_formula_sum   'Pr2 H4 F2'
_cell_volume   87.85998058
_cell_formula_units_Z   2
loop_
 _symmetry_equiv_pos_site_id
 _symmetry_equiv_pos_as_xyz
  1  'x, y, z'
loop_
 _atom_site_type_symbol
 _atom_site_label
 _atom_site_symmetry_multiplicity
 _atom_site_fract_x
 _atom_site_fract_y
 _atom_site_fract_z
 _atom_site_occupancy
  Pr  Pr0  1  0.49999988  0.99999975  0.50000071  1.0
  Pr  Pr1  1  0.99999977  0.49999987  0.00000069  1.0
  H  H2  1  0.25180674  0.99905661  0.24847162  1.0
  H  H3  1  0.00094372  0.74819325  0.25152769  1.0
  H  H4  1  0.99905673  0.25180673  0.74847139  1.0
  H  H5  1  0.74819333  0.00094391  0.75152721  1.0
  F  F6  1  0.50336502  0.49663481  0.75000050  1.0
  F  F7  1  0.49663482  0.50336507  0.25000019  1.0
