# generated using pymatgen
data_PrICl2
_symmetry_space_group_name_H-M   'P 1'
_cell_length_a   3.95521147
_cell_length_b   10.39829424
_cell_length_c   11.11645381
_cell_angle_alpha   70.84816881
_cell_angle_beta   90.00001452
_cell_angle_gamma   90.00005160
_symmetry_Int_Tables_number   1
_chemical_formula_structural   PrICl2
_chemical_formula_sum   'Pr2 I2 Cl4'
_cell_volume   431.88703248
_cell_formula_units_Z   2
loop_
 _symmetry_equiv_pos_site_id
 _symmetry_equiv_pos_as_xyz
  1  'x, y, z'
loop_
 _atom_site_type_symbol
 _atom_site_label
 _atom_site_symmetry_multiplicity
 _atom_site_fract_x
 _atom_site_fract_y
 _atom_site_fract_z
 _atom_site_occupancy
  Pr  Pr0  1  0.00000003  0.83412861  0.31137319  1.0
  Pr  Pr1  1  0.99999996  0.16587139  0.68862681  1.0
  I  I2  1  0.50000000  0.63338456  0.23670472  1.0
  I  I3  1  0.50000000  0.36661545  0.76329526  1.0
  Cl  Cl4  1  0.49999998  0.02037245  0.18190061  1.0
  Cl  Cl5  1  0.50000003  0.97962756  0.81809941  1.0
  Cl  Cl6  1  0.50000013  0.80182454  0.49934776  1.0
  Cl  Cl7  1  0.49999987  0.19817543  0.50065225  1.0
