# generated using pymatgen
data_PrSeF
_symmetry_space_group_name_H-M   'P 1'
_cell_length_a   4.72855081
_cell_length_b   4.72855102
_cell_length_c   4.72855080
_cell_angle_alpha   59.99992988
_cell_angle_beta   59.99992902
_cell_angle_gamma   59.99993113
_symmetry_Int_Tables_number   1
_chemical_formula_structural   PrSeF
_chemical_formula_sum   'Pr1 Se1 F1'
_cell_volume   74.75986553
_cell_formula_units_Z   1
loop_
 _symmetry_equiv_pos_site_id
 _symmetry_equiv_pos_as_xyz
  1  'x, y, z'
loop_
 _atom_site_type_symbol
 _atom_site_label
 _atom_site_symmetry_multiplicity
 _atom_site_fract_x
 _atom_site_fract_y
 _atom_site_fract_z
 _atom_site_occupancy
  Pr  Pr0  1  0.00000018  0.00000017  0.00000019  1.0
  Se  Se1  1  0.24999997  0.24999997  0.24999996  1.0
  F  F2  1  0.74999985  0.74999986  0.74999985  1.0
