# generated using pymatgen
data_Rb2HF
_symmetry_space_group_name_H-M   'P 1'
_cell_length_a   8.19558539
_cell_length_b   8.20486873
_cell_length_c   8.72267403
_cell_angle_alpha   90.15540013
_cell_angle_beta   90.15700561
_cell_angle_gamma   126.68992289
_symmetry_Int_Tables_number   1
_chemical_formula_structural   Rb2HF
_chemical_formula_sum   'Rb8 H4 F4'
_cell_volume   470.33037086
_cell_formula_units_Z   4
loop_
 _symmetry_equiv_pos_site_id
 _symmetry_equiv_pos_as_xyz
  1  'x, y, z'
loop_
 _atom_site_type_symbol
 _atom_site_label
 _atom_site_symmetry_multiplicity
 _atom_site_fract_x
 _atom_site_fract_y
 _atom_site_fract_z
 _atom_site_occupancy
  Rb  Rb0  1  0.38347474  0.12360652  0.61623245  1.0
  Rb  Rb1  1  0.87576540  0.61591895  0.88376919  1.0
  Rb  Rb2  1  0.61653148  0.87640010  0.38376647  1.0
  Rb  Rb3  1  0.12423516  0.38408198  0.11623097  1.0
  Rb  Rb4  1  0.87467995  0.61673976  0.38376889  1.0
  Rb  Rb5  1  0.38261975  0.12465486  0.11623496  1.0
  Rb  Rb6  1  0.12532671  0.38326645  0.61623216  1.0
  Rb  Rb7  1  0.61738086  0.87534569  0.88376559  1.0
  H  H8  1  0.74061171  0.74204885  0.62866681  1.0
  H  H9  1  0.25792759  0.25929594  0.87133241  1.0
  H  H10  1  0.25937459  0.25793794  0.37133242  1.0
  H  H11  1  0.74206540  0.74069718  0.12866679  1.0
  F  F12  1  0.24763288  0.75044096  0.50021068  1.0
  F  F13  1  0.24956104  0.75235235  0.99970784  1.0
  F  F14  1  0.75237338  0.24956435  0.49978941  1.0
  F  F15  1  0.75043937  0.24764812  0.00029296  1.0
