# generated using pymatgen
data_RbAgBr2
_symmetry_space_group_name_H-M   'P 1'
_cell_length_a   4.52926658
_cell_length_b   4.52926894
_cell_length_c   22.30826755
_cell_angle_alpha   89.99998044
_cell_angle_beta   90.00003493
_cell_angle_gamma   120.00016716
_symmetry_Int_Tables_number   1
_chemical_formula_structural   RbAgBr2
_chemical_formula_sum   'Rb3 Ag3 Br6'
_cell_volume   396.32524478
_cell_formula_units_Z   3
loop_
 _symmetry_equiv_pos_site_id
 _symmetry_equiv_pos_as_xyz
  1  'x, y, z'
loop_
 _atom_site_type_symbol
 _atom_site_label
 _atom_site_symmetry_multiplicity
 _atom_site_fract_x
 _atom_site_fract_y
 _atom_site_fract_z
 _atom_site_occupancy
  Rb  Rb0  1  0.66666667  0.33333333  0.30118832  1.0
  Rb  Rb1  1  0.33333333  0.66666667  0.69881172  1.0
  Rb  Rb2  1  0.99999994  0.99999986  0.50000000  1.0
  Ag  Ag3  1  0.33333333  0.66666667  0.13509337  1.0
  Ag  Ag4  1  0.66666667  0.33333333  0.86490666  1.0
  Ag  Ag5  1  0.00000063  0.00000036  0.99999991  1.0
  Br  Br6  1  0.66666667  0.33333333  0.06748527  1.0
  Br  Br7  1  0.33333333  0.66666667  0.93251473  1.0
  Br  Br8  1  0.66666667  0.33333333  0.59915867  1.0
  Br  Br9  1  0.33333333  0.66666667  0.40084137  1.0
  Br  Br10  1  0.99999728  0.00000051  0.20136119  1.0
  Br  Br11  1  0.00000246  0.99999904  0.79863877  1.0
