# generated using pymatgen
data_RbAlO2
_symmetry_space_group_name_H-M   'P 1'
_cell_length_a   6.31155281
_cell_length_b   6.31152422
_cell_length_c   13.21212963
_cell_angle_alpha   83.39879317
_cell_angle_beta   83.39875755
_cell_angle_gamma   89.99776372
_symmetry_Int_Tables_number   1
_chemical_formula_structural   RbAlO2
_chemical_formula_sum   'Rb8 Al8 O16'
_cell_volume   519.31029117
_cell_formula_units_Z   8
loop_
 _symmetry_equiv_pos_site_id
 _symmetry_equiv_pos_as_xyz
  1  'x, y, z'
loop_
 _atom_site_type_symbol
 _atom_site_label
 _atom_site_symmetry_multiplicity
 _atom_site_fract_x
 _atom_site_fract_y
 _atom_site_fract_z
 _atom_site_occupancy
  Rb  Rb0  1  0.64968057  0.77467872  0.40725269  1.0
  Rb  Rb1  1  0.22532135  0.35031948  0.09274712  1.0
  Rb  Rb2  1  0.35031942  0.22532128  0.59274731  1.0
  Rb  Rb3  1  0.77467865  0.64968053  0.90725288  1.0
  Rb  Rb4  1  0.22001744  0.84481099  0.11793061  1.0
  Rb  Rb5  1  0.15518909  0.77998264  0.38206915  1.0
  Rb  Rb6  1  0.77998256  0.15518902  0.88206938  1.0
  Rb  Rb7  1  0.84481090  0.22001735  0.61793085  1.0
  Al  Al8  1  0.42193728  0.29321807  0.32902924  1.0
  Al  Al9  1  0.70678231  0.57806378  0.17096912  1.0
  Al  Al10  1  0.57806272  0.70678193  0.67097076  1.0
  Al  Al11  1  0.29321769  0.42193622  0.82903088  1.0
  Al  Al12  1  0.70716071  0.08658013  0.16957244  1.0
  Al  Al13  1  0.91341965  0.29283966  0.33042596  1.0
  Al  Al14  1  0.29283929  0.91341987  0.83042756  1.0
  Al  Al15  1  0.08658035  0.70716034  0.66957404  1.0
  O  O16  1  0.45592857  0.08137115  0.24925267  1.0
  O  O17  1  0.91863019  0.54406956  0.25074863  1.0
  O  O18  1  0.54407142  0.91862885  0.75074733  1.0
  O  O19  1  0.08136981  0.45593044  0.74925137  1.0
  O  O20  1  0.45534461  0.54465351  0.25000065  1.0
  O  O21  1  0.54465540  0.45534649  0.74999935  1.0
  O  O22  1  0.91846786  0.08153345  0.25000066  1.0
  O  O23  1  0.08153213  0.91846655  0.74999934  1.0
  O  O24  1  0.72365358  0.84793162  0.10300451  1.0
  O  O25  1  0.15206829  0.27634635  0.39699591  1.0
  O  O26  1  0.27634643  0.15206838  0.89699549  1.0
  O  O27  1  0.84793171  0.72365365  0.60300409  1.0
  O  O28  1  0.64859594  0.27427798  0.40685099  1.0
  O  O29  1  0.72572194  0.35140400  0.09314943  1.0
  O  O30  1  0.35140406  0.72572202  0.59314901  1.0
  O  O31  1  0.27427806  0.64859600  0.90685057  1.0
