# generated using pymatgen
data_RbAuF2
_symmetry_space_group_name_H-M   'P 1'
_cell_length_a   3.77817155
_cell_length_b   3.77516313
_cell_length_c   6.62472996
_cell_angle_alpha   89.92257308
_cell_angle_beta   89.99595688
_cell_angle_gamma   120.02273391
_symmetry_Int_Tables_number   1
_chemical_formula_structural   RbAuF2
_chemical_formula_sum   'Rb1 Au1 F2'
_cell_volume   81.81183153
_cell_formula_units_Z   1
loop_
 _symmetry_equiv_pos_site_id
 _symmetry_equiv_pos_as_xyz
  1  'x, y, z'
loop_
 _atom_site_type_symbol
 _atom_site_label
 _atom_site_symmetry_multiplicity
 _atom_site_fract_x
 _atom_site_fract_y
 _atom_site_fract_z
 _atom_site_occupancy
  Rb  Rb0  1  0.00000074  0.00000056  0.99999731  1.0
  Au  Au1  1  0.99999888  0.99999843  0.49999371  1.0
  F  F2  1  0.33317006  0.66638412  0.27373166  1.0
  F  F3  1  0.66683031  0.33361690  0.72627732  1.0
