# generated using pymatgen
data_RbAuSe2
_symmetry_space_group_name_H-M   'P 1'
_cell_length_a   7.02318238
_cell_length_b   7.02318238
_cell_length_c   7.24456807
_cell_angle_alpha   99.46629009
_cell_angle_beta   99.46629015
_cell_angle_gamma   108.07193191
_symmetry_Int_Tables_number   1
_chemical_formula_structural   RbAuSe2
_chemical_formula_sum   'Rb2 Au2 Se4'
_cell_volume   326.11723359
_cell_formula_units_Z   2
loop_
 _symmetry_equiv_pos_site_id
 _symmetry_equiv_pos_as_xyz
  1  'x, y, z'
loop_
 _atom_site_type_symbol
 _atom_site_label
 _atom_site_symmetry_multiplicity
 _atom_site_fract_x
 _atom_site_fract_y
 _atom_site_fract_z
 _atom_site_occupancy
  Rb  Rb0  1  0.67660256  0.32339744  0.25000000  1.0
  Rb  Rb1  1  0.32339744  0.67660256  0.75000000  1.0
  Au  Au2  1  0.00000000  0.00000000  0.00000000  1.0
  Au  Au3  1  0.00000000  0.00000000  0.50000000  1.0
  Se  Se4  1  0.16846286  0.25586872  0.31762666  1.0
  Se  Se5  1  0.25586871  0.16846285  0.81762666  1.0
  Se  Se6  1  0.83153714  0.74413128  0.68237334  1.0
  Se  Se7  1  0.74413129  0.83153715  0.18237334  1.0
