# generated using pymatgen
data_RbCoTe2
_symmetry_space_group_name_H-M   'P 1'
_cell_length_a   7.50358712
_cell_length_b   7.50023033
_cell_length_c   6.26251461
_cell_angle_alpha   95.46428264
_cell_angle_beta   95.64548786
_cell_angle_gamma   105.43464964
_symmetry_Int_Tables_number   1
_chemical_formula_structural   RbCoTe2
_chemical_formula_sum   'Rb2 Co2 Te4'
_cell_volume   335.36814938
_cell_formula_units_Z   2
loop_
 _symmetry_equiv_pos_site_id
 _symmetry_equiv_pos_as_xyz
  1  'x, y, z'
loop_
 _atom_site_type_symbol
 _atom_site_label
 _atom_site_symmetry_multiplicity
 _atom_site_fract_x
 _atom_site_fract_y
 _atom_site_fract_z
 _atom_site_occupancy
  Rb  Rb0  1  0.68872973  0.31127856  0.25013655  1.0
  Rb  Rb1  1  0.31127023  0.68872142  0.74986346  1.0
  Co  Co2  1  0.00000001  0.00000000  0.00000000  1.0
  Co  Co3  1  0.00000001  0.00000000  0.50000000  1.0
  Te  Te4  1  0.17506521  0.25446351  0.29927519  1.0
  Te  Te5  1  0.25442754  0.17503065  0.79957543  1.0
  Te  Te6  1  0.82493480  0.74553650  0.70072481  1.0
  Te  Te7  1  0.74557247  0.82496935  0.20042457  1.0
