# generated using pymatgen
data_RbNaBr2
_symmetry_space_group_name_H-M   'P 1'
_cell_length_a   4.53809502
_cell_length_b   4.53809443
_cell_length_c   7.96115467
_cell_angle_alpha   90.00005288
_cell_angle_beta   89.99992246
_cell_angle_gamma   120.00024690
_symmetry_Int_Tables_number   1
_chemical_formula_structural   RbNaBr2
_chemical_formula_sum   'Rb1 Na1 Br2'
_cell_volume   141.98835454
_cell_formula_units_Z   1
loop_
 _symmetry_equiv_pos_site_id
 _symmetry_equiv_pos_as_xyz
  1  'x, y, z'
loop_
 _atom_site_type_symbol
 _atom_site_label
 _atom_site_symmetry_multiplicity
 _atom_site_fract_x
 _atom_site_fract_y
 _atom_site_fract_z
 _atom_site_occupancy
  Rb  Rb0  1  0.99999982  0.00000035  0.49999985  1.0
  Na  Na1  1  0.00000008  0.99999998  0.00000005  1.0
  Br  Br2  1  0.33333333  0.66666667  0.21380962  1.0
  Br  Br3  1  0.66666667  0.33333333  0.78619048  1.0
