# generated using pymatgen
data_RbTbBr4
_symmetry_space_group_name_H-M   'P 1'
_cell_length_a   8.63853458
_cell_length_b   7.06868742
_cell_length_c   7.09471030
_cell_angle_alpha   90.00001584
_cell_angle_beta   90.00359587
_cell_angle_gamma   95.55397623
_symmetry_Int_Tables_number   1
_chemical_formula_structural   RbTbBr4
_chemical_formula_sum   'Rb2 Tb2 Br8'
_cell_volume   431.19121830
_cell_formula_units_Z   2
loop_
 _symmetry_equiv_pos_site_id
 _symmetry_equiv_pos_as_xyz
  1  'x, y, z'
loop_
 _atom_site_type_symbol
 _atom_site_label
 _atom_site_symmetry_multiplicity
 _atom_site_fract_x
 _atom_site_fract_y
 _atom_site_fract_z
 _atom_site_occupancy
  Rb  Rb0  1  0.49999677  0.24999561  0.70335815  1.0
  Rb  Rb1  1  0.50000323  0.75000440  0.29664188  1.0
  Tb  Tb2  1  0.99999376  0.74999921  0.75444274  1.0
  Tb  Tb3  1  0.00000624  0.25000078  0.24555724  1.0
  Br  Br4  1  0.80956648  0.02877233  0.55567161  1.0
  Br  Br5  1  0.19043867  0.47123461  0.55567826  1.0
  Br  Br6  1  0.19043349  0.97122767  0.44432839  1.0
  Br  Br7  1  0.80956135  0.52876539  0.44432173  1.0
  Br  Br8  1  0.18816686  0.57405128  0.05461663  1.0
  Br  Br9  1  0.81182605  0.92595374  0.05460217  1.0
  Br  Br10  1  0.81183314  0.42594871  0.94538337  1.0
  Br  Br11  1  0.18817396  0.07404625  0.94539782  1.0
