# generated using pymatgen
data_RbTi5S8
_symmetry_space_group_name_H-M   'P 1'
_cell_length_a   3.47258037
_cell_length_b   9.03806189
_cell_length_c   9.19248318
_cell_angle_alpha   104.64070512
_cell_angle_beta   100.89066502
_cell_angle_gamma   89.99527688
_symmetry_Int_Tables_number   1
_chemical_formula_structural   RbTi5S8
_chemical_formula_sum   'Rb1 Ti5 S8'
_cell_volume   273.76901716
_cell_formula_units_Z   1
loop_
 _symmetry_equiv_pos_site_id
 _symmetry_equiv_pos_as_xyz
  1  'x, y, z'
loop_
 _atom_site_type_symbol
 _atom_site_label
 _atom_site_symmetry_multiplicity
 _atom_site_fract_x
 _atom_site_fract_y
 _atom_site_fract_z
 _atom_site_occupancy
  Rb  Rb0  1  0.50000136  0.50000065  0.00000257  1.0
  Ti  Ti1  1  0.99999880  0.00000259  0.99999788  1.0
  Ti  Ti2  1  0.29209204  0.65195758  0.58428770  1.0
  Ti  Ti3  1  0.66290732  0.99562069  0.32591318  1.0
  Ti  Ti4  1  0.33709267  0.00437641  0.67408703  1.0
  Ti  Ti5  1  0.70790763  0.34804309  0.41571192  1.0
  S  S6  1  0.24334039  0.16931935  0.48670374  1.0
  S  S7  1  0.42343446  0.83552686  0.84674614  1.0
  S  S8  1  0.57656273  0.16447154  0.15324872  1.0
  S  S9  1  0.91183381  0.16924754  0.82349597  1.0
  S  S10  1  0.08816715  0.83075639  0.17650628  1.0
  S  S11  1  0.83703787  0.50624858  0.67408666  1.0
  S  S12  1  0.16296157  0.49374923  0.32591251  1.0
  S  S13  1  0.75666124  0.83067851  0.51329967  1.0
