# generated using pymatgen
data_RbY5O8
_symmetry_space_group_name_H-M   'P 1'
_cell_length_a   3.47111884
_cell_length_b   8.25175015
_cell_length_c   8.90774273
_cell_angle_alpha   105.65744378
_cell_angle_beta   101.23422832
_cell_angle_gamma   90.00160057
_symmetry_Int_Tables_number   1
_chemical_formula_structural   RbY5O8
_chemical_formula_sum   'Rb1 Y5 O8'
_cell_volume   240.59351809
_cell_formula_units_Z   1
loop_
 _symmetry_equiv_pos_site_id
 _symmetry_equiv_pos_as_xyz
  1  'x, y, z'
loop_
 _atom_site_type_symbol
 _atom_site_label
 _atom_site_symmetry_multiplicity
 _atom_site_fract_x
 _atom_site_fract_y
 _atom_site_fract_z
 _atom_site_occupancy
  Rb  Rb0  1  0.50000221  0.49999647  0.00000538  1.0
  Y  Y1  1  0.30288346  0.67011989  0.60576013  1.0
  Y  Y2  1  0.69711584  0.32988063  0.39423971  1.0
  Y  Y3  1  0.34415205  0.08008303  0.68829152  1.0
  Y  Y4  1  0.65584784  0.91991778  0.31170801  1.0
  Y  Y5  1  0.99999976  0.99999948  0.99999949  1.0
  O  O6  1  0.22528579  0.13366229  0.45046606  1.0
  O  O7  1  0.77471390  0.86633896  0.54953344  1.0
  O  O8  1  0.17919672  0.47957151  0.35834573  1.0
  O  O9  1  0.82080183  0.52042894  0.64165248  1.0
  O  O10  1  0.08011728  0.81351598  0.16021734  1.0
  O  O11  1  0.91988284  0.18648438  0.83978271  1.0
  O  O12  1  0.41796024  0.88489188  0.83595613  1.0
  O  O13  1  0.58203924  0.11510877  0.16404285  1.0
