# generated using pymatgen
data_RbYH4
_symmetry_space_group_name_H-M   'P 1'
_cell_length_a   5.41668440
_cell_length_b   6.64846258
_cell_length_c   5.41664878
_cell_angle_alpha   89.56127170
_cell_angle_beta   90.00000000
_cell_angle_gamma   90.00000000
_symmetry_Int_Tables_number   1
_chemical_formula_structural   RbYH4
_chemical_formula_sum   'Rb2 Y2 H8'
_cell_volume   195.06201464
_cell_formula_units_Z   2
loop_
 _symmetry_equiv_pos_site_id
 _symmetry_equiv_pos_as_xyz
  1  'x, y, z'
loop_
 _atom_site_type_symbol
 _atom_site_label
 _atom_site_symmetry_multiplicity
 _atom_site_fract_x
 _atom_site_fract_y
 _atom_site_fract_z
 _atom_site_occupancy
  Rb  Rb0  1  0.75306095  0.00000000  0.75000000  1.0
  Rb  Rb1  1  0.24693905  0.00000000  0.25000000  1.0
  Y  Y2  1  0.74986535  0.50000000  0.25000000  1.0
  Y  Y3  1  0.25013465  0.50000000  0.75000000  1.0
  H  H4  1  0.46439205  0.32026048  0.03797310  1.0
  H  H5  1  0.46439205  0.67973952  0.46202690  1.0
  H  H6  1  0.96432259  0.32009630  0.96664385  1.0
  H  H7  1  0.96432259  0.67990370  0.53335615  1.0
  H  H8  1  0.03567741  0.67990370  0.03335615  1.0
  H  H9  1  0.03567741  0.32009630  0.46664385  1.0
  H  H10  1  0.53560795  0.32026048  0.53797310  1.0
  H  H11  1  0.53560795  0.67973952  0.96202690  1.0
