# generated using pymatgen
data_Sb2TePd
_symmetry_space_group_name_H-M   'P 1'
_cell_length_a   4.21905459
_cell_length_b   7.20397153
_cell_length_c   14.71895359
_cell_angle_alpha   99.42246615
_cell_angle_beta   90.83157836
_cell_angle_gamma   107.01754808
_symmetry_Int_Tables_number   1
_chemical_formula_structural   Sb2TePd
_chemical_formula_sum   'Sb8 Te4 Pd4'
_cell_volume   421.08255457
_cell_formula_units_Z   4
loop_
 _symmetry_equiv_pos_site_id
 _symmetry_equiv_pos_as_xyz
  1  'x, y, z'
loop_
 _atom_site_type_symbol
 _atom_site_label
 _atom_site_symmetry_multiplicity
 _atom_site_fract_x
 _atom_site_fract_y
 _atom_site_fract_z
 _atom_site_occupancy
  Sb  Sb0  1  0.16151594  0.30627447  0.94133051  1.0
  Sb  Sb1  1  0.84717827  0.69423294  0.55595866  1.0
  Sb  Sb2  1  0.83848389  0.69372592  0.05866928  1.0
  Sb  Sb3  1  0.15282156  0.30576656  0.44404155  1.0
  Sb  Sb4  1  0.64739978  0.30304268  0.19221405  1.0
  Sb  Sb5  1  0.66122690  0.30913830  0.69320444  1.0
  Sb  Sb6  1  0.35259975  0.69695703  0.80778570  1.0
  Sb  Sb7  1  0.33877319  0.69086184  0.30679576  1.0
  Te  Te8  1  0.50000003  0.00000019  0.99999994  1.0
  Te  Te9  1  0.00570256  0.00260511  0.74986676  1.0
  Te  Te10  1  0.50000031  0.99999994  0.50000007  1.0
  Te  Te11  1  0.99429755  0.99739486  0.25013328  1.0
  Pd  Pd12  1  0.25491055  0.50322946  0.62534579  1.0
  Pd  Pd13  1  0.75750960  0.50291856  0.87544498  1.0
  Pd  Pd14  1  0.74508963  0.49677026  0.37465428  1.0
  Pd  Pd15  1  0.24249049  0.49708187  0.12455496  1.0
