# generated using pymatgen
data_SbPb2F
_symmetry_space_group_name_H-M   'P 1'
_cell_length_a   5.26367122
_cell_length_b   5.26367132
_cell_length_c   5.26367166
_cell_angle_alpha   59.99997110
_cell_angle_beta   59.99998310
_cell_angle_gamma   59.99997703
_symmetry_Int_Tables_number   1
_chemical_formula_structural   SbPb2F
_chemical_formula_sum   'Sb1 Pb2 F1'
_cell_volume   103.12194234
_cell_formula_units_Z   1
loop_
 _symmetry_equiv_pos_site_id
 _symmetry_equiv_pos_as_xyz
  1  'x, y, z'
loop_
 _atom_site_type_symbol
 _atom_site_label
 _atom_site_symmetry_multiplicity
 _atom_site_fract_x
 _atom_site_fract_y
 _atom_site_fract_z
 _atom_site_occupancy
  Sb  Sb0  1  0.00000001  0.00000000  0.99999997  1.0
  Pb  Pb1  1  0.74999989  0.75000009  0.75000018  1.0
  Pb  Pb2  1  0.25000008  0.24999992  0.24999987  1.0
  F  F3  1  0.50000002  0.49999999  0.49999998  1.0
