# generated using pymatgen
data_ScHBr4
_symmetry_space_group_name_H-M   'P 1'
_cell_length_a   9.04587495
_cell_length_b   6.87376086
_cell_length_c   8.83692472
_cell_angle_alpha   90.16075615
_cell_angle_beta   90.20048202
_cell_angle_gamma   44.82605278
_symmetry_Int_Tables_number   1
_chemical_formula_structural   ScHBr4
_chemical_formula_sum   'Sc2 H2 Br8'
_cell_volume   387.35212560
_cell_formula_units_Z   2
loop_
 _symmetry_equiv_pos_site_id
 _symmetry_equiv_pos_as_xyz
  1  'x, y, z'
loop_
 _atom_site_type_symbol
 _atom_site_label
 _atom_site_symmetry_multiplicity
 _atom_site_fract_x
 _atom_site_fract_y
 _atom_site_fract_z
 _atom_site_occupancy
  Sc  Sc0  1  0.49929935  0.75048327  0.61150177  1.0
  Sc  Sc1  1  0.50202156  0.24621114  0.38851230  1.0
  H  H2  1  0.99987639  0.25021144  0.81427179  1.0
  H  H3  1  0.00473757  0.74737537  0.18570630  1.0
  Br  Br4  1  0.75670486  0.36840202  0.82889623  1.0
  Br  Br5  1  0.24323390  0.13182832  0.82913411  1.0
  Br  Br6  1  0.75464056  0.87011504  0.17183441  1.0
  Br  Br7  1  0.26799211  0.14292084  0.39522620  1.0
  Br  Br8  1  0.73085367  0.85812213  0.60584833  1.0
  Br  Br9  1  0.24187204  0.63320670  0.17003793  1.0
  Br  Br10  1  0.26915704  0.64164852  0.60431972  1.0
  Br  Br11  1  0.72961094  0.35947519  0.39471090  1.0
