# generated using pymatgen
data_ScIrN2
_symmetry_space_group_name_H-M   'P 1'
_cell_length_a   3.21054531
_cell_length_b   3.21054543
_cell_length_c   5.14891278
_cell_angle_alpha   90.00000095
_cell_angle_beta   90.00000016
_cell_angle_gamma   119.99999815
_symmetry_Int_Tables_number   1
_chemical_formula_structural   ScIrN2
_chemical_formula_sum   'Sc1 Ir1 N2'
_cell_volume   45.96251642
_cell_formula_units_Z   1
loop_
 _symmetry_equiv_pos_site_id
 _symmetry_equiv_pos_as_xyz
  1  'x, y, z'
loop_
 _atom_site_type_symbol
 _atom_site_label
 _atom_site_symmetry_multiplicity
 _atom_site_fract_x
 _atom_site_fract_y
 _atom_site_fract_z
 _atom_site_occupancy
  Sc  Sc0  1  0.99999972  0.99999990  0.00000008  1.0
  Ir  Ir1  1  0.00000012  0.00000004  0.50000011  1.0
  N  N2  1  0.33333333  0.66666667  0.27291883  1.0
  N  N3  1  0.66666667  0.33333333  0.72708099  1.0
