# generated using pymatgen
data_ScTaTe4
_symmetry_space_group_name_H-M   'P 1'
_cell_length_a   6.38149116
_cell_length_b   6.96436182
_cell_length_c   8.28956108
_cell_angle_alpha   89.99998497
_cell_angle_beta   89.99999737
_cell_angle_gamma   90.50419514
_symmetry_Int_Tables_number   1
_chemical_formula_structural   ScTaTe4
_chemical_formula_sum   'Sc2 Ta2 Te8'
_cell_volume   368.39880965
_cell_formula_units_Z   2
loop_
 _symmetry_equiv_pos_site_id
 _symmetry_equiv_pos_as_xyz
  1  'x, y, z'
loop_
 _atom_site_type_symbol
 _atom_site_label
 _atom_site_symmetry_multiplicity
 _atom_site_fract_x
 _atom_site_fract_y
 _atom_site_fract_z
 _atom_site_occupancy
  Sc  Sc0  1  0.49999994  0.25000010  0.39209329  1.0
  Sc  Sc1  1  0.50000005  0.74999993  0.60790712  1.0
  Ta  Ta2  1  0.00000002  0.24999992  0.89030603  1.0
  Ta  Ta3  1  0.99999997  0.75000003  0.10969368  1.0
  Te  Te4  1  0.25972217  0.42828852  0.11555318  1.0
  Te  Te5  1  0.23456411  0.41714166  0.63285886  1.0
  Te  Te6  1  0.74027785  0.07171149  0.11555327  1.0
  Te  Te7  1  0.76543598  0.58285910  0.36714083  1.0
  Te  Te8  1  0.76543580  0.08285840  0.63285891  1.0
  Te  Te9  1  0.25972199  0.92828773  0.88444752  1.0
  Te  Te10  1  0.23456413  0.91714087  0.36714073  1.0
  Te  Te11  1  0.74027799  0.57171225  0.88444758  1.0
