# generated using pymatgen
data_SiGeSe4
_symmetry_space_group_name_H-M   'P 1'
_cell_length_a   11.59284010
_cell_length_b   5.23868402
_cell_length_c   5.24590613
_cell_angle_alpha   89.99819961
_cell_angle_beta   90.00776380
_cell_angle_gamma   89.99161960
_symmetry_Int_Tables_number   1
_chemical_formula_structural   SiGeSe4
_chemical_formula_sum   'Si2 Ge2 Se8'
_cell_volume   318.59030520
_cell_formula_units_Z   2
loop_
 _symmetry_equiv_pos_site_id
 _symmetry_equiv_pos_as_xyz
  1  'x, y, z'
loop_
 _atom_site_type_symbol
 _atom_site_label
 _atom_site_symmetry_multiplicity
 _atom_site_fract_x
 _atom_site_fract_y
 _atom_site_fract_z
 _atom_site_occupancy
  Si  Si0  1  0.75062515  0.00002613  0.74996649  1.0
  Si  Si1  1  0.24940512  0.99997439  0.25003322  1.0
  Ge  Ge2  1  0.75040526  0.50001610  0.24997743  1.0
  Ge  Ge3  1  0.24961951  0.49998285  0.75002323  1.0
  Se  Se4  1  0.62060502  0.24039945  0.50970026  1.0
  Se  Se5  1  0.62059474  0.75953438  0.99036045  1.0
  Se  Se6  1  0.37938091  0.75960479  0.49029562  1.0
  Se  Se7  1  0.37939017  0.24046322  0.00964164  1.0
  Se  Se8  1  0.88036121  0.24085542  0.99100888  1.0
  Se  Se9  1  0.88036351  0.75915414  0.50898520  1.0
  Se  Se10  1  0.11962583  0.75913666  0.00898463  1.0
  Se  Se11  1  0.11962356  0.24085247  0.49102295  1.0
