# generated using pymatgen
data_SiMoS4
_symmetry_space_group_name_H-M   'P 1'
_cell_length_a   5.58595946
_cell_length_b   5.73975974
_cell_length_c   6.84930294
_cell_angle_alpha   90.00000256
_cell_angle_beta   89.99999799
_cell_angle_gamma   88.49718959
_symmetry_Int_Tables_number   1
_chemical_formula_structural   SiMoS4
_chemical_formula_sum   'Si2 Mo2 S8'
_cell_volume   219.52726293
_cell_formula_units_Z   2
loop_
 _symmetry_equiv_pos_site_id
 _symmetry_equiv_pos_as_xyz
  1  'x, y, z'
loop_
 _atom_site_type_symbol
 _atom_site_label
 _atom_site_symmetry_multiplicity
 _atom_site_fract_x
 _atom_site_fract_y
 _atom_site_fract_z
 _atom_site_occupancy
  Si  Si0  1  0.49999998  0.25000000  0.59716345  1.0
  Si  Si1  1  0.50000001  0.75000000  0.40284215  1.0
  Mo  Mo2  1  0.00000002  0.24999999  0.08367263  1.0
  Mo  Mo3  1  0.99999999  0.75000001  0.91631489  1.0
  S  S4  1  0.74301439  0.43641287  0.39083618  1.0
  S  S5  1  0.25698561  0.06358714  0.39083616  1.0
  S  S6  1  0.25698408  0.56358569  0.60916379  1.0
  S  S7  1  0.74301591  0.93641430  0.60916380  1.0
  S  S8  1  0.73497015  0.92152523  0.12639292  1.0
  S  S9  1  0.26502984  0.57847478  0.12639293  1.0
  S  S10  1  0.26503617  0.07847555  0.87361056  1.0
  S  S11  1  0.73496384  0.42152445  0.87361054  1.0
