# generated using pymatgen
data_SiOF2
_symmetry_space_group_name_H-M   'P 1'
_cell_length_a   6.02249777
_cell_length_b   6.05343489
_cell_length_c   8.48712098
_cell_angle_alpha   75.48240967
_cell_angle_beta   75.38424550
_cell_angle_gamma   69.00985888
_symmetry_Int_Tables_number   1
_chemical_formula_structural   SiOF2
_chemical_formula_sum   'Si4 O4 F8'
_cell_volume   275.09812539
_cell_formula_units_Z   4
loop_
 _symmetry_equiv_pos_site_id
 _symmetry_equiv_pos_as_xyz
  1  'x, y, z'
loop_
 _atom_site_type_symbol
 _atom_site_label
 _atom_site_symmetry_multiplicity
 _atom_site_fract_x
 _atom_site_fract_y
 _atom_site_fract_z
 _atom_site_occupancy
  Si  Si0  1  0.19154995  0.85036744  0.95465836  1.0
  Si  Si1  1  0.20861498  0.87121045  0.48438324  1.0
  Si  Si2  1  0.87126543  0.20830911  0.98261162  1.0
  Si  Si3  1  0.85351475  0.19510335  0.45327007  1.0
  O  O4  1  0.12292909  0.12860631  0.84103275  1.0
  O  O5  1  0.92994194  0.95038235  0.59919696  1.0
  O  O6  1  0.94007777  0.93007690  0.09640506  1.0
  O  O7  1  0.13206503  0.11557206  0.33822092  1.0
  F  F8  1  0.42078094  0.86233367  0.56833773  1.0
  F  F9  1  0.86129698  0.41640069  0.07030737  1.0
  F  F10  1  0.64101556  0.20501799  0.36903234  1.0
  F  F11  1  0.20206852  0.64285535  0.86607005  1.0
  F  F12  1  0.43703608  0.77092358  0.02283145  1.0
  F  F13  1  0.28037131  0.62218724  0.42388750  1.0
  F  F14  1  0.62534191  0.28711482  0.91513451  1.0
  F  F15  1  0.78212978  0.44353868  0.51461907  1.0
