# generated using pymatgen
data_Sm2SO
_symmetry_space_group_name_H-M   'P 1'
_cell_length_a   3.89900457
_cell_length_b   3.89903131
_cell_length_c   20.39748794
_cell_angle_alpha   89.99794963
_cell_angle_beta   90.00125342
_cell_angle_gamma   120.00037650
_symmetry_Int_Tables_number   1
_chemical_formula_structural   Sm2SO
_chemical_formula_sum   'Sm4 S2 O2'
_cell_volume   268.54442181
_cell_formula_units_Z   2
loop_
 _symmetry_equiv_pos_site_id
 _symmetry_equiv_pos_as_xyz
  1  'x, y, z'
loop_
 _atom_site_type_symbol
 _atom_site_label
 _atom_site_symmetry_multiplicity
 _atom_site_fract_x
 _atom_site_fract_y
 _atom_site_fract_z
 _atom_site_occupancy
  Sm  Sm0  1  0.66666667  0.33333333  0.64861665  1.0
  Sm  Sm1  1  0.33333333  0.66666667  0.35138984  1.0
  Sm  Sm2  1  0.33333333  0.66666667  0.16890571  1.0
  Sm  Sm3  1  0.66666667  0.33333333  0.83108712  1.0
  S  S4  1  0.66666667  0.33333333  0.10125697  1.0
  S  S5  1  0.33333333  0.66666667  0.89873395  1.0
  O  O6  1  0.33333333  0.66666667  0.62331387  1.0
  O  O7  1  0.66666667  0.33333333  0.37669588  1.0
