# generated using pymatgen
data_SmCdBr4
_symmetry_space_group_name_H-M   'P 1'
_cell_length_a   8.34893564
_cell_length_b   7.10407380
_cell_length_c   7.52713407
_cell_angle_alpha   85.07205659
_cell_angle_beta   90.00000051
_cell_angle_gamma   89.99999979
_symmetry_Int_Tables_number   1
_chemical_formula_structural   SmCdBr4
_chemical_formula_sum   'Sm2 Cd2 Br8'
_cell_volume   444.79499695
_cell_formula_units_Z   2
loop_
 _symmetry_equiv_pos_site_id
 _symmetry_equiv_pos_as_xyz
  1  'x, y, z'
loop_
 _atom_site_type_symbol
 _atom_site_label
 _atom_site_symmetry_multiplicity
 _atom_site_fract_x
 _atom_site_fract_y
 _atom_site_fract_z
 _atom_site_occupancy
  Sm  Sm0  1  0.14942583  0.00000002  0.24999999  1.0
  Sm  Sm1  1  0.85057561  0.99999998  0.75000000  1.0
  Cd  Cd2  1  0.65052361  0.50000002  0.25000003  1.0
  Cd  Cd3  1  0.34947653  0.50000002  0.74999997  1.0
  Br  Br4  1  0.10336384  0.77499485  0.94605308  1.0
  Br  Br5  1  0.10336385  0.22500513  0.55394695  1.0
  Br  Br6  1  0.89664501  0.22499593  0.05394045  1.0
  Br  Br7  1  0.89664505  0.77500406  0.44605958  1.0
  Br  Br8  1  0.38341112  0.74305832  0.40100453  1.0
  Br  Br9  1  0.38341112  0.25694169  0.09899534  1.0
  Br  Br10  1  0.61657920  0.25694239  0.59901272  1.0
  Br  Br11  1  0.61657923  0.74305757  0.90098735  1.0
