# generated using pymatgen
data_SmFeBr4
_symmetry_space_group_name_H-M   'P 1'
_cell_length_a   7.95356327
_cell_length_b   6.42698791
_cell_length_c   7.03351843
_cell_angle_alpha   90.26516076
_cell_angle_beta   90.00023160
_cell_angle_gamma   89.99990291
_symmetry_Int_Tables_number   1
_chemical_formula_structural   SmFeBr4
_chemical_formula_sum   'Sm2 Fe2 Br8'
_cell_volume   359.53171147
_cell_formula_units_Z   2
loop_
 _symmetry_equiv_pos_site_id
 _symmetry_equiv_pos_as_xyz
  1  'x, y, z'
loop_
 _atom_site_type_symbol
 _atom_site_label
 _atom_site_symmetry_multiplicity
 _atom_site_fract_x
 _atom_site_fract_y
 _atom_site_fract_z
 _atom_site_occupancy
  Sm  Sm0  1  0.65985718  0.49999807  0.74999744  1.0
  Sm  Sm1  1  0.34014218  0.49999696  0.24999823  1.0
  Fe  Fe2  1  0.12168992  0.00000542  0.75000078  1.0
  Fe  Fe3  1  0.87831495  0.00000242  0.25000299  1.0
  Br  Br4  1  0.88823303  0.22230750  0.93378409  1.0
  Br  Br5  1  0.37898103  0.24846218  0.90750422  1.0
  Br  Br6  1  0.37897977  0.75153473  0.59249321  1.0
  Br  Br7  1  0.88823588  0.77769370  0.56621826  1.0
  Br  Br8  1  0.11176587  0.22230917  0.43378374  1.0
  Br  Br9  1  0.62101799  0.24846199  0.40750563  1.0
  Br  Br10  1  0.62101876  0.75153494  0.09249453  1.0
  Br  Br11  1  0.11176344  0.77769292  0.06621691  1.0
