# generated using pymatgen
data_SmFeH4
_symmetry_space_group_name_H-M   'P 1'
_cell_length_a   4.42380244
_cell_length_b   4.31771200
_cell_length_c   5.99276750
_cell_angle_alpha   90.00035077
_cell_angle_beta   90.00025696
_cell_angle_gamma   89.96037493
_symmetry_Int_Tables_number   1
_chemical_formula_structural   SmFeH4
_chemical_formula_sum   'Sm2 Fe2 H8'
_cell_volume   114.46605606
_cell_formula_units_Z   2
loop_
 _symmetry_equiv_pos_site_id
 _symmetry_equiv_pos_as_xyz
  1  'x, y, z'
loop_
 _atom_site_type_symbol
 _atom_site_label
 _atom_site_symmetry_multiplicity
 _atom_site_fract_x
 _atom_site_fract_y
 _atom_site_fract_z
 _atom_site_occupancy
  Sm  Sm0  1  0.00000104  0.75000037  0.76889242  1.0
  Sm  Sm1  1  0.99999896  0.24999964  0.23111004  1.0
  Fe  Fe2  1  0.50000082  0.25000227  0.63261834  1.0
  Fe  Fe3  1  0.49999917  0.74999770  0.36737197  1.0
  H  H4  1  0.73167195  0.99896323  0.50006363  1.0
  H  H5  1  0.26833104  0.50103643  0.50006311  1.0
  H  H6  1  0.26832956  0.00103974  0.49993559  1.0
  H  H7  1  0.73166746  0.49896061  0.49993611  1.0
  H  H8  1  0.25280049  0.74749138  0.15355142  1.0
  H  H9  1  0.74719828  0.75250769  0.15355128  1.0
  H  H10  1  0.74720140  0.25251031  0.84645298  1.0
  H  H11  1  0.25279983  0.24749064  0.84645311  1.0
