# generated using pymatgen
data_SmGeO2
_symmetry_space_group_name_H-M   'P 1'
_cell_length_a   4.29734257
_cell_length_b   4.29734997
_cell_length_c   4.29734863
_cell_angle_alpha   60.00000676
_cell_angle_beta   59.99999345
_cell_angle_gamma   60.00006593
_symmetry_Int_Tables_number   1
_chemical_formula_structural   SmGeO2
_chemical_formula_sum   'Sm1 Ge1 O2'
_cell_volume   56.11597413
_cell_formula_units_Z   1
loop_
 _symmetry_equiv_pos_site_id
 _symmetry_equiv_pos_as_xyz
  1  'x, y, z'
loop_
 _atom_site_type_symbol
 _atom_site_label
 _atom_site_symmetry_multiplicity
 _atom_site_fract_x
 _atom_site_fract_y
 _atom_site_fract_z
 _atom_site_occupancy
  Sm  Sm0  1  0.99999980  0.00000006  0.99999999  1.0
  Ge  Ge1  1  0.50000009  0.49999993  0.50000008  1.0
  O  O2  1  0.74999999  0.75000029  0.75000000  1.0
  O  O3  1  0.25000013  0.24999971  0.24999993  1.0
