# generated using pymatgen
data_SmH2Cl
_symmetry_space_group_name_H-M   'P 1'
_cell_length_a   3.47852328
_cell_length_b   8.33950404
_cell_length_c   8.42088987
_cell_angle_alpha   73.95738554
_cell_angle_beta   90.00007946
_cell_angle_gamma   90.00007417
_symmetry_Int_Tables_number   1
_chemical_formula_structural   SmH2Cl
_chemical_formula_sum   'Sm2 H4 Cl2'
_cell_volume   234.76968110
_cell_formula_units_Z   2
loop_
 _symmetry_equiv_pos_site_id
 _symmetry_equiv_pos_as_xyz
  1  'x, y, z'
loop_
 _atom_site_type_symbol
 _atom_site_label
 _atom_site_symmetry_multiplicity
 _atom_site_fract_x
 _atom_site_fract_y
 _atom_site_fract_z
 _atom_site_occupancy
  Sm  Sm0  1  0.00000040  0.83734449  0.31271993  1.0
  Sm  Sm1  1  0.99999961  0.16265551  0.68728008  1.0
  H  H2  1  0.50000039  0.98958608  0.18668134  1.0
  H  H3  1  0.49999960  0.01041392  0.81331870  1.0
  H  H4  1  0.50000090  0.84136958  0.48362132  1.0
  H  H5  1  0.49999910  0.15863038  0.51637871  1.0
  Cl  Cl6  1  0.49999965  0.60997219  0.25052315  1.0
  Cl  Cl7  1  0.50000036  0.39002785  0.74947677  1.0
