# generated using pymatgen
data_SmSnO2
_symmetry_space_group_name_H-M   'P 1'
_cell_length_a   3.49232694
_cell_length_b   3.49232808
_cell_length_c   7.06519398
_cell_angle_alpha   89.99991590
_cell_angle_beta   89.99996672
_cell_angle_gamma   120.00002619
_symmetry_Int_Tables_number   1
_chemical_formula_structural   SmSnO2
_chemical_formula_sum   'Sm1 Sn1 O2'
_cell_volume   74.62503320
_cell_formula_units_Z   1
loop_
 _symmetry_equiv_pos_site_id
 _symmetry_equiv_pos_as_xyz
  1  'x, y, z'
loop_
 _atom_site_type_symbol
 _atom_site_label
 _atom_site_symmetry_multiplicity
 _atom_site_fract_x
 _atom_site_fract_y
 _atom_site_fract_z
 _atom_site_occupancy
  Sm  Sm0  1  0.00000003  0.00000008  0.50000001  1.0
  Sn  Sn1  1  0.99999988  0.99999973  0.00000006  1.0
  O  O2  1  0.33333333  0.66666667  0.32665612  1.0
  O  O3  1  0.66666667  0.33333333  0.67334380  1.0
