# generated using pymatgen
data_SmTe4Os
_symmetry_space_group_name_H-M   'P 1'
_cell_length_a   6.50789922
_cell_length_b   7.78815199
_cell_length_c   7.19695237
_cell_angle_alpha   89.99999681
_cell_angle_beta   89.99999957
_cell_angle_gamma   77.09766105
_symmetry_Int_Tables_number   1
_chemical_formula_structural   SmTe4Os
_chemical_formula_sum   'Sm2 Te8 Os2'
_cell_volume   355.56420721
_cell_formula_units_Z   2
loop_
 _symmetry_equiv_pos_site_id
 _symmetry_equiv_pos_as_xyz
  1  'x, y, z'
loop_
 _atom_site_type_symbol
 _atom_site_label
 _atom_site_symmetry_multiplicity
 _atom_site_fract_x
 _atom_site_fract_y
 _atom_site_fract_z
 _atom_site_occupancy
  Sm  Sm0  1  0.49999998  0.74999996  0.26761772  1.0
  Sm  Sm1  1  0.50000002  0.25000004  0.73238959  1.0
  Te  Te2  1  0.76161092  0.51364563  0.91801621  1.0
  Te  Te3  1  0.23838401  0.48634563  0.08198269  1.0
  Te  Te4  1  0.23838906  0.98635446  0.91801615  1.0
  Te  Te5  1  0.76161602  0.01365424  0.08198275  1.0
  Te  Te6  1  0.76407205  0.89466011  0.58224408  1.0
  Te  Te7  1  0.23592715  0.10535204  0.41774426  1.0
  Te  Te8  1  0.23592750  0.60533993  0.58224397  1.0
  Te  Te9  1  0.76407325  0.39464797  0.41774435  1.0
  Os  Os10  1  0.99999991  0.74999997  0.87777021  1.0
  Os  Os11  1  0.00000014  0.25000004  0.12224802  1.0
