# generated using pymatgen
data_SmTe2Pb
_symmetry_space_group_name_H-M   'P 1'
_cell_length_a   4.37071506
_cell_length_b   7.51634664
_cell_length_c   11.21978220
_cell_angle_alpha   131.64408633
_cell_angle_beta   89.99970770
_cell_angle_gamma   89.99761110
_symmetry_Int_Tables_number   1
_chemical_formula_structural   SmTe2Pb
_chemical_formula_sum   'Sm2 Te4 Pb2'
_cell_volume   275.44262837
_cell_formula_units_Z   2
loop_
 _symmetry_equiv_pos_site_id
 _symmetry_equiv_pos_as_xyz
  1  'x, y, z'
loop_
 _atom_site_type_symbol
 _atom_site_label
 _atom_site_symmetry_multiplicity
 _atom_site_fract_x
 _atom_site_fract_y
 _atom_site_fract_z
 _atom_site_occupancy
  Sm  Sm0  1  0.50000074  0.99990281  0.49993501  1.0
  Sm  Sm1  1  0.99999867  0.50010318  0.50006536  1.0
  Te  Te2  1  0.00000575  0.60377188  0.26929722  1.0
  Te  Te3  1  0.99999584  0.39599816  0.73054650  1.0
  Te  Te4  1  0.50000243  0.10421490  0.26926003  1.0
  Te  Te5  1  0.49999533  0.89601376  0.73089400  1.0
  Pb  Pb6  1  0.50000404  0.50026055  0.00005120  1.0
  Pb  Pb7  1  0.99999721  0.99973476  0.99995067  1.0
