# generated using pymatgen
data_SmTl2Si
_symmetry_space_group_name_H-M   'P 1'
_cell_length_a   5.33663344
_cell_length_b   5.33663342
_cell_length_c   5.33663345
_cell_angle_alpha   59.99998423
_cell_angle_beta   59.99998397
_cell_angle_gamma   59.99998325
_symmetry_Int_Tables_number   1
_chemical_formula_structural   SmTl2Si
_chemical_formula_sum   'Sm1 Tl2 Si1'
_cell_volume   107.46992893
_cell_formula_units_Z   1
loop_
 _symmetry_equiv_pos_site_id
 _symmetry_equiv_pos_as_xyz
  1  'x, y, z'
loop_
 _atom_site_type_symbol
 _atom_site_label
 _atom_site_symmetry_multiplicity
 _atom_site_fract_x
 _atom_site_fract_y
 _atom_site_fract_z
 _atom_site_occupancy
  Sm  Sm0  1  0.25000087  0.25000087  0.25000087  1.0
  Tl  Tl1  1  0.00000008  0.00000008  0.00000008  1.0
  Tl  Tl2  1  0.50000008  0.50000008  0.50000008  1.0
  Si  Si3  1  0.74999996  0.74999996  0.74999996  1.0
