# generated using pymatgen
data_SnPbF4
_symmetry_space_group_name_H-M   'P 1'
_cell_length_a   5.86575102
_cell_length_b   6.02653625
_cell_length_c   6.03274181
_cell_angle_alpha   89.99998667
_cell_angle_beta   89.99995519
_cell_angle_gamma   90.62913351
_symmetry_Int_Tables_number   1
_chemical_formula_structural   SnPbF4
_chemical_formula_sum   'Sn2 Pb2 F8'
_cell_volume   213.24553901
_cell_formula_units_Z   2
loop_
 _symmetry_equiv_pos_site_id
 _symmetry_equiv_pos_as_xyz
  1  'x, y, z'
loop_
 _atom_site_type_symbol
 _atom_site_label
 _atom_site_symmetry_multiplicity
 _atom_site_fract_x
 _atom_site_fract_y
 _atom_site_fract_z
 _atom_site_occupancy
  Sn  Sn0  1  0.00000644  0.75000122  0.75583305  1.0
  Sn  Sn1  1  0.99999361  0.25000041  0.24416704  1.0
  Pb  Pb2  1  0.49999999  0.74999920  0.25507580  1.0
  Pb  Pb3  1  0.50000012  0.25000082  0.74492425  1.0
  F  F4  1  0.75613353  0.99562489  0.99379297  1.0
  F  F5  1  0.24386630  0.00437477  0.00620635  1.0
  F  F6  1  0.24386713  0.50438118  0.99378784  1.0
  F  F7  1  0.75613262  0.49561846  0.00621278  1.0
  F  F8  1  0.75318571  0.50563638  0.50497934  1.0
  F  F9  1  0.24681448  0.49436316  0.49501985  1.0
  F  F10  1  0.24681433  0.99435732  0.50498724  1.0
  F  F11  1  0.75318574  0.00564219  0.49501350  1.0
