# generated using pymatgen
data_SnPtS2
_symmetry_space_group_name_H-M   'P 1'
_cell_length_a   3.50838553
_cell_length_b   8.06835206
_cell_length_c   7.11403435
_cell_angle_alpha   69.80850293
_cell_angle_beta   90.00003881
_cell_angle_gamma   89.99998705
_symmetry_Int_Tables_number   1
_chemical_formula_structural   SnPtS2
_chemical_formula_sum   'Sn2 Pt2 S4'
_cell_volume   189.00046183
_cell_formula_units_Z   2
loop_
 _symmetry_equiv_pos_site_id
 _symmetry_equiv_pos_as_xyz
  1  'x, y, z'
loop_
 _atom_site_type_symbol
 _atom_site_label
 _atom_site_symmetry_multiplicity
 _atom_site_fract_x
 _atom_site_fract_y
 _atom_site_fract_z
 _atom_site_occupancy
  Sn  Sn0  1  0.99999990  0.50000003  0.00000000  1.0
  Sn  Sn1  1  0.00000016  0.50000001  0.49999997  1.0
  Pt  Pt2  1  0.50000027  0.00000001  0.50000001  1.0
  Pt  Pt3  1  0.00000027  0.99999998  0.00000003  1.0
  S  S4  1  0.99999942  0.79337832  0.64215686  1.0
  S  S5  1  0.50000021  0.11680550  0.77449002  1.0
  S  S6  1  0.49999939  0.88319447  0.22550999  1.0
  S  S7  1  0.00000038  0.20662167  0.35784314  1.0
