# generated using pymatgen
data_SnRuI4
_symmetry_space_group_name_H-M   'P 1'
_cell_length_a   7.10396371
_cell_length_b   7.75506667
_cell_length_c   7.30457135
_cell_angle_alpha   97.02461535
_cell_angle_beta   89.99886609
_cell_angle_gamma   89.99880628
_symmetry_Int_Tables_number   1
_chemical_formula_structural   SnRuI4
_chemical_formula_sum   'Sn2 Ru2 I8'
_cell_volume   399.40064807
_cell_formula_units_Z   2
loop_
 _symmetry_equiv_pos_site_id
 _symmetry_equiv_pos_as_xyz
  1  'x, y, z'
loop_
 _atom_site_type_symbol
 _atom_site_label
 _atom_site_symmetry_multiplicity
 _atom_site_fract_x
 _atom_site_fract_y
 _atom_site_fract_z
 _atom_site_occupancy
  Sn  Sn0  1  0.50000000  0.50000000  0.99999999  1.0
  Sn  Sn1  1  0.00000001  0.50000002  0.49999998  1.0
  Ru  Ru2  1  0.50000000  0.99999997  0.50000000  1.0
  Ru  Ru3  1  0.99999997  0.99999995  0.00000000  1.0
  I  I4  1  0.18171148  0.87333180  0.29479491  1.0
  I  I5  1  0.68171233  0.12666753  0.20520428  1.0
  I  I6  1  0.86453902  0.68189013  0.89011688  1.0
  I  I7  1  0.36454161  0.31810176  0.60987983  1.0
  I  I8  1  0.81828853  0.12666821  0.70520510  1.0
  I  I9  1  0.31828768  0.87333248  0.79479573  1.0
  I  I10  1  0.13546101  0.31810991  0.10988314  1.0
  I  I11  1  0.63545836  0.68189823  0.39012017  1.0
