# generated using pymatgen
data_SrCeSb2
_symmetry_space_group_name_H-M   'P 1'
_cell_length_a   5.62520942
_cell_length_b   5.62808343
_cell_length_c   5.62393425
_cell_angle_alpha   59.98615071
_cell_angle_beta   60.03379560
_cell_angle_gamma   59.97797076
_symmetry_Int_Tables_number   1
_chemical_formula_structural   SrCeSb2
_chemical_formula_sum   'Sr1 Ce1 Sb2'
_cell_volume   125.89757987
_cell_formula_units_Z   1
loop_
 _symmetry_equiv_pos_site_id
 _symmetry_equiv_pos_as_xyz
  1  'x, y, z'
loop_
 _atom_site_type_symbol
 _atom_site_label
 _atom_site_symmetry_multiplicity
 _atom_site_fract_x
 _atom_site_fract_y
 _atom_site_fract_z
 _atom_site_occupancy
  Sr  Sr0  1  0.50000000  0.50000000  0.50000000  1.0
  Ce  Ce1  1  0.00000000  0.00000000  0.00000000  1.0
  Sb  Sb2  1  0.74998638  0.75000591  0.75000021  1.0
  Sb  Sb3  1  0.25001362  0.24999409  0.24999978  1.0
