# generated using pymatgen
data_SrCuS2
_symmetry_space_group_name_H-M   'P 1'
_cell_length_a   4.03036688
_cell_length_b   6.54772861
_cell_length_c   7.35259621
_cell_angle_alpha   90.36286716
_cell_angle_beta   89.99999976
_cell_angle_gamma   89.99999999
_symmetry_Int_Tables_number   1
_chemical_formula_structural   SrCuS2
_chemical_formula_sum   'Sr2 Cu2 S4'
_cell_volume   194.02927372
_cell_formula_units_Z   2
loop_
 _symmetry_equiv_pos_site_id
 _symmetry_equiv_pos_as_xyz
  1  'x, y, z'
loop_
 _atom_site_type_symbol
 _atom_site_label
 _atom_site_symmetry_multiplicity
 _atom_site_fract_x
 _atom_site_fract_y
 _atom_site_fract_z
 _atom_site_occupancy
  Sr  Sr0  1  0.00000000  0.99999937  0.99999996  1.0
  Sr  Sr1  1  0.50000000  0.99999941  0.50000052  1.0
  Cu  Cu2  1  0.50000000  0.62454396  0.16630138  1.0
  Cu  Cu3  1  0.50000000  0.37545389  0.83369666  1.0
  S  S4  1  0.50000000  0.27723402  0.14802394  1.0
  S  S5  1  0.00000000  0.27104443  0.68909399  1.0
  S  S6  1  0.00000000  0.72895933  0.31090998  1.0
  S  S7  1  0.50000000  0.72276558  0.85197357  1.0
