# generated using pymatgen
data_SrSmO2
_symmetry_space_group_name_H-M   'P 1'
_cell_length_a   6.44711305
_cell_length_b   6.44796038
_cell_length_c   6.44615139
_cell_angle_alpha   94.56346256
_cell_angle_beta   123.10906818
_cell_angle_gamma   57.84019627
_symmetry_Int_Tables_number   1
_chemical_formula_structural   SrSmO2
_chemical_formula_sum   'Sr2 Sm2 O4'
_cell_volume   181.39871481
_cell_formula_units_Z   2
loop_
 _symmetry_equiv_pos_site_id
 _symmetry_equiv_pos_as_xyz
  1  'x, y, z'
loop_
 _atom_site_type_symbol
 _atom_site_label
 _atom_site_symmetry_multiplicity
 _atom_site_fract_x
 _atom_site_fract_y
 _atom_site_fract_z
 _atom_site_occupancy
  Sr  Sr0  1  0.56594447  0.25003617  0.31601632  1.0
  Sr  Sr1  1  0.43405286  0.74996377  0.68398121  1.0
  Sm  Sm2  1  0.00000403  0.49999430  0.50001048  1.0
  Sm  Sm3  1  0.00000423  0.00000583  0.99999773  1.0
  O  O4  1  0.49991710  0.33034531  0.66902582  1.0
  O  O5  1  0.99939144  0.16972366  0.33027726  1.0
  O  O6  1  0.00060611  0.83027588  0.66971988  1.0
  O  O7  1  0.50007975  0.66965507  0.33097129  1.0
