# generated using pymatgen
data_SrSmF4
_symmetry_space_group_name_H-M   'P 1'
_cell_length_a   6.21148765
_cell_length_b   5.76062745
_cell_length_c   5.79281492
_cell_angle_alpha   89.99999923
_cell_angle_beta   90.00000180
_cell_angle_gamma   92.70090183
_symmetry_Int_Tables_number   1
_chemical_formula_structural   SrSmF4
_chemical_formula_sum   'Sr2 Sm2 F8'
_cell_volume   207.04862812
_cell_formula_units_Z   2
loop_
 _symmetry_equiv_pos_site_id
 _symmetry_equiv_pos_as_xyz
  1  'x, y, z'
loop_
 _atom_site_type_symbol
 _atom_site_label
 _atom_site_symmetry_multiplicity
 _atom_site_fract_x
 _atom_site_fract_y
 _atom_site_fract_z
 _atom_site_occupancy
  Sr  Sr0  1  0.50000001  0.25000000  0.73032147  1.0
  Sr  Sr1  1  0.50000001  0.75000000  0.26967852  1.0
  Sm  Sm2  1  0.00000006  0.75000001  0.75341546  1.0
  Sm  Sm3  1  0.99999995  0.25000000  0.24658454  1.0
  F  F4  1  0.79805484  0.03454548  0.54637439  1.0
  F  F5  1  0.20194515  0.46545449  0.54637437  1.0
  F  F6  1  0.20194514  0.96545449  0.45362558  1.0
  F  F7  1  0.79805483  0.53454548  0.45362567  1.0
  F  F8  1  0.17931355  0.58402555  0.07285708  1.0
  F  F9  1  0.82068640  0.91597447  0.07285694  1.0
  F  F10  1  0.82068645  0.41597447  0.92714294  1.0
  F  F11  1  0.17931361  0.08402556  0.92714305  1.0
