# generated using pymatgen
data_SrTl8Te5
_symmetry_space_group_name_H-M   'P 1'
_cell_length_a   5.01062491
_cell_length_b   10.25252619
_cell_length_c   11.79446356
_cell_angle_alpha   110.23457027
_cell_angle_beta   102.31484223
_cell_angle_gamma   89.94313696
_symmetry_Int_Tables_number   1
_chemical_formula_structural   SrTl8Te5
_chemical_formula_sum   'Sr1 Tl8 Te5'
_cell_volume   553.67243350
_cell_formula_units_Z   1
loop_
 _symmetry_equiv_pos_site_id
 _symmetry_equiv_pos_as_xyz
  1  'x, y, z'
loop_
 _atom_site_type_symbol
 _atom_site_label
 _atom_site_symmetry_multiplicity
 _atom_site_fract_x
 _atom_site_fract_y
 _atom_site_fract_z
 _atom_site_occupancy
  Sr  Sr0  1  0.00000796  0.99999732  0.00001574  1.0
  Tl  Tl1  1  0.05547749  0.71779393  0.11134592  1.0
  Tl  Tl2  1  0.33425338  0.01208590  0.66755122  1.0
  Tl  Tl3  1  0.44978886  0.75821215  0.89998920  1.0
  Tl  Tl4  1  0.70534844  0.58313362  0.40968064  1.0
  Tl  Tl5  1  0.29465477  0.41687221  0.59032564  1.0
  Tl  Tl6  1  0.55021059  0.24178451  0.10000928  1.0
  Tl  Tl7  1  0.66574407  0.98790946  0.33244461  1.0
  Tl  Tl8  1  0.94451600  0.28217880  0.88864066  1.0
  Te  Te9  1  0.19761013  0.78944162  0.39474183  1.0
  Te  Te10  1  0.86499150  0.73819124  0.73041660  1.0
  Te  Te11  1  0.13501261  0.26184554  0.26959136  1.0
  Te  Te12  1  0.80238510  0.21056409  0.60524934  1.0
  Te  Te13  1  0.49999909  0.49998960  0.99999796  1.0
