# generated using pymatgen
data_SrTmS2
_symmetry_space_group_name_H-M   'P 1'
_cell_length_a   7.00022426
_cell_length_b   9.05375310
_cell_length_c   7.09463467
_cell_angle_alpha   74.65706346
_cell_angle_beta   109.17621314
_cell_angle_gamma   75.11450190
_symmetry_Int_Tables_number   1
_chemical_formula_structural   SrTmS2
_chemical_formula_sum   'Sr4 Tm4 S8'
_cell_volume   379.26456169
_cell_formula_units_Z   4
loop_
 _symmetry_equiv_pos_site_id
 _symmetry_equiv_pos_as_xyz
  1  'x, y, z'
loop_
 _atom_site_type_symbol
 _atom_site_label
 _atom_site_symmetry_multiplicity
 _atom_site_fract_x
 _atom_site_fract_y
 _atom_site_fract_z
 _atom_site_occupancy
  Sr  Sr0  1  0.80934960  0.38144215  0.05940919  1.0
  Sr  Sr1  1  0.43439468  0.13141656  0.18437549  1.0
  Sr  Sr2  1  0.56560532  0.86858344  0.81562450  1.0
  Sr  Sr3  1  0.19065039  0.61855785  0.94059081  1.0
  Tm  Tm4  1  0.93997455  0.11990562  0.68970023  1.0
  Tm  Tm5  1  0.68526434  0.62997575  0.43517513  1.0
  Tm  Tm6  1  0.31473566  0.37002425  0.56482487  1.0
  Tm  Tm7  1  0.06002545  0.88009438  0.31029977  1.0
  S  S8  1  0.95136243  0.62549654  0.21946615  1.0
  S  S9  1  0.82180076  0.87518513  0.55318548  1.0
  S  S10  1  0.30279885  0.87519619  0.07166799  1.0
  S  S11  1  0.57661747  0.37472841  0.34500726  1.0
  S  S12  1  0.42338253  0.62527159  0.65499274  1.0
  S  S13  1  0.69720116  0.12480381  0.92833201  1.0
  S  S14  1  0.17819924  0.12481487  0.44681452  1.0
  S  S15  1  0.04863757  0.37450346  0.78053385  1.0
