# generated using pymatgen
data_TaHO2
_symmetry_space_group_name_H-M   'P 1'
_cell_length_a   3.44392864
_cell_length_b   3.44392868
_cell_length_c   3.89248726
_cell_angle_alpha   90.00000950
_cell_angle_beta   89.99998957
_cell_angle_gamma   120.00004229
_symmetry_Int_Tables_number   1
_chemical_formula_structural   TaHO2
_chemical_formula_sum   'Ta1 H1 O2'
_cell_volume   39.98213117
_cell_formula_units_Z   1
loop_
 _symmetry_equiv_pos_site_id
 _symmetry_equiv_pos_as_xyz
  1  'x, y, z'
loop_
 _atom_site_type_symbol
 _atom_site_label
 _atom_site_symmetry_multiplicity
 _atom_site_fract_x
 _atom_site_fract_y
 _atom_site_fract_z
 _atom_site_occupancy
  Ta  Ta0  1  0.99999999  0.99999999  0.99999997  1.0
  H  H1  1  0.00000000  0.00000000  0.50000004  1.0
  O  O2  1  0.33333333  0.66666667  0.17550973  1.0
  O  O3  1  0.66666667  0.33333333  0.82449026  1.0
