# generated using pymatgen
data_TaTe4Ir
_symmetry_space_group_name_H-M   'P 1'
_cell_length_a   5.85034359
_cell_length_b   6.92223799
_cell_length_c   7.85029988
_cell_angle_alpha   89.99999851
_cell_angle_beta   90.00000084
_cell_angle_gamma   91.17927533
_symmetry_Int_Tables_number   1
_chemical_formula_structural   TaTe4Ir
_chemical_formula_sum   'Ta2 Te8 Ir2'
_cell_volume   317.84995198
_cell_formula_units_Z   2
loop_
 _symmetry_equiv_pos_site_id
 _symmetry_equiv_pos_as_xyz
  1  'x, y, z'
loop_
 _atom_site_type_symbol
 _atom_site_label
 _atom_site_symmetry_multiplicity
 _atom_site_fract_x
 _atom_site_fract_y
 _atom_site_fract_z
 _atom_site_occupancy
  Ta  Ta0  1  0.50000000  0.74999999  0.38006304  1.0
  Ta  Ta1  1  0.50000000  0.25000001  0.61993856  1.0
  Te  Te2  1  0.73582163  0.42745086  0.89272614  1.0
  Te  Te3  1  0.26417613  0.57254795  0.10727179  1.0
  Te  Te4  1  0.26417837  0.07254916  0.89272614  1.0
  Te  Te5  1  0.73582387  0.92745204  0.10727179  1.0
  Te  Te6  1  0.78035467  0.92939045  0.61820800  1.0
  Te  Te7  1  0.21964664  0.07061396  0.38179369  1.0
  Te  Te8  1  0.21964531  0.57060955  0.61820801  1.0
  Te  Te9  1  0.78035338  0.42938603  0.38179369  1.0
  Ir  Ir10  1  0.00000000  0.75000000  0.87412741  1.0
  Ir  Ir11  1  0.00000000  0.25000000  0.12587174  1.0
