# generated using pymatgen
data_TbErAs2
_symmetry_space_group_name_H-M   'P 1'
_cell_length_a   5.08076431
_cell_length_b   5.08076311
_cell_length_c   5.08076379
_cell_angle_alpha   60.00000707
_cell_angle_beta   60.00000656
_cell_angle_gamma   60.00000041
_symmetry_Int_Tables_number   1
_chemical_formula_structural   TbErAs2
_chemical_formula_sum   'Tb1 Er1 As2'
_cell_volume   92.74105848
_cell_formula_units_Z   1
loop_
 _symmetry_equiv_pos_site_id
 _symmetry_equiv_pos_as_xyz
  1  'x, y, z'
loop_
 _atom_site_type_symbol
 _atom_site_label
 _atom_site_symmetry_multiplicity
 _atom_site_fract_x
 _atom_site_fract_y
 _atom_site_fract_z
 _atom_site_occupancy
  Tb  Tb0  1  0.99999997  0.00000007  0.99999998  1.0
  Er  Er1  1  0.50000012  0.49999990  0.50000013  1.0
  As  As2  1  0.24999995  0.25000005  0.24999994  1.0
  As  As3  1  0.74999997  0.74999998  0.74999995  1.0
