# generated using pymatgen
data_TbHfS4
_symmetry_space_group_name_H-M   'P 1'
_cell_length_a   6.13083452
_cell_length_b   6.83828170
_cell_length_c   6.79321320
_cell_angle_alpha   89.99912901
_cell_angle_beta   90.00505920
_cell_angle_gamma   72.73498418
_symmetry_Int_Tables_number   1
_chemical_formula_structural   TbHfS4
_chemical_formula_sum   'Tb2 Hf2 S8'
_cell_volume   271.96868901
_cell_formula_units_Z   2
loop_
 _symmetry_equiv_pos_site_id
 _symmetry_equiv_pos_as_xyz
  1  'x, y, z'
loop_
 _atom_site_type_symbol
 _atom_site_label
 _atom_site_symmetry_multiplicity
 _atom_site_fract_x
 _atom_site_fract_y
 _atom_site_fract_z
 _atom_site_occupancy
  Tb  Tb0  1  0.50000005  0.25003550  0.73666263  1.0
  Tb  Tb1  1  0.50000411  0.74997131  0.26333479  1.0
  Hf  Hf2  1  0.99999344  0.75000474  0.85135912  1.0
  Hf  Hf3  1  0.00001338  0.24999029  0.14865902  1.0
  S  S4  1  0.75395212  0.87589534  0.55559869  1.0
  S  S5  1  0.24594720  0.62416969  0.55566742  1.0
  S  S6  1  0.24607192  0.12409526  0.44440440  1.0
  S  S7  1  0.75399693  0.37585307  0.44431334  1.0
  S  S8  1  0.26021347  0.47689863  0.06803685  1.0
  S  S9  1  0.73977878  0.02311613  0.06799800  1.0
  S  S10  1  0.73980225  0.52308898  0.93196045  1.0
  S  S11  1  0.26022635  0.97688106  0.93200528  1.0
