# generated using pymatgen
data_TbVAs2
_symmetry_space_group_name_H-M   'P 1'
_cell_length_a   4.81228975
_cell_length_b   4.81228852
_cell_length_c   4.81228857
_cell_angle_alpha   60.00006945
_cell_angle_beta   60.00004438
_cell_angle_gamma   60.00004598
_symmetry_Int_Tables_number   1
_chemical_formula_structural   TbVAs2
_chemical_formula_sum   'Tb1 V1 As2'
_cell_volume   78.80261233
_cell_formula_units_Z   1
loop_
 _symmetry_equiv_pos_site_id
 _symmetry_equiv_pos_as_xyz
  1  'x, y, z'
loop_
 _atom_site_type_symbol
 _atom_site_label
 _atom_site_symmetry_multiplicity
 _atom_site_fract_x
 _atom_site_fract_y
 _atom_site_fract_z
 _atom_site_occupancy
  Tb  Tb0  1  0.49999951  0.50000017  0.49999984  1.0
  V  V1  1  0.00000143  0.99999949  0.00000051  1.0
  As  As2  1  0.24999959  0.25000018  0.24999986  1.0
  As  As3  1  0.74999947  0.75000016  0.74999979  1.0
