# generated using pymatgen
data_TiAsN2
_symmetry_space_group_name_H-M   'P 1'
_cell_length_a   3.03173114
_cell_length_b   3.03173105
_cell_length_c   5.83916532
_cell_angle_alpha   90.00001010
_cell_angle_beta   89.99998103
_cell_angle_gamma   119.99999796
_symmetry_Int_Tables_number   1
_chemical_formula_structural   TiAsN2
_chemical_formula_sum   'Ti1 As1 N2'
_cell_volume   46.47964134
_cell_formula_units_Z   1
loop_
 _symmetry_equiv_pos_site_id
 _symmetry_equiv_pos_as_xyz
  1  'x, y, z'
loop_
 _atom_site_type_symbol
 _atom_site_label
 _atom_site_symmetry_multiplicity
 _atom_site_fract_x
 _atom_site_fract_y
 _atom_site_fract_z
 _atom_site_occupancy
  Ti  Ti0  1  0.00000002  0.00000001  0.00000001  1.0
  As  As1  1  0.99999999  0.99999994  0.50000004  1.0
  N  N2  1  0.33333333  0.66666667  0.80209128  1.0
  N  N3  1  0.66666667  0.33333333  0.19790867  1.0
