# generated using pymatgen
data_TiCuO2
_symmetry_space_group_name_H-M   'P 1'
_cell_length_a   2.92435236
_cell_length_b   5.88526441
_cell_length_c   5.26822342
_cell_angle_alpha   97.97016537
_cell_angle_beta   89.99999260
_cell_angle_gamma   89.99919423
_symmetry_Int_Tables_number   1
_chemical_formula_structural   TiCuO2
_chemical_formula_sum   'Ti2 Cu2 O4'
_cell_volume   89.79338876
_cell_formula_units_Z   2
loop_
 _symmetry_equiv_pos_site_id
 _symmetry_equiv_pos_as_xyz
  1  'x, y, z'
loop_
 _atom_site_type_symbol
 _atom_site_label
 _atom_site_symmetry_multiplicity
 _atom_site_fract_x
 _atom_site_fract_y
 _atom_site_fract_z
 _atom_site_occupancy
  Ti  Ti0  1  0.99999997  0.00009409  0.00005233  1.0
  Ti  Ti1  1  0.49999996  0.00005596  0.49997878  1.0
  Cu  Cu2  1  0.49998235  0.52261528  0.26103443  1.0
  Cu  Cu3  1  0.50001785  0.47738158  0.73896732  1.0
  O  O4  1  0.49999711  0.19375084  0.19935454  1.0
  O  O5  1  0.99999282  0.19928165  0.70750739  1.0
  O  O6  1  0.00000709  0.80067507  0.29248474  1.0
  O  O7  1  0.50000285  0.80614553  0.80062047  1.0
