# generated using pymatgen
data_TiFeO2
_symmetry_space_group_name_H-M   'P 1'
_cell_length_a   4.35010291
_cell_length_b   4.35023495
_cell_length_c   5.10680073
_cell_angle_alpha   68.93812224
_cell_angle_beta   68.93798985
_cell_angle_gamma   89.50094044
_symmetry_Int_Tables_number   1
_chemical_formula_structural   TiFeO2
_chemical_formula_sum   'Ti2 Fe2 O4'
_cell_volume   83.35079598
_cell_formula_units_Z   2
loop_
 _symmetry_equiv_pos_site_id
 _symmetry_equiv_pos_as_xyz
  1  'x, y, z'
loop_
 _atom_site_type_symbol
 _atom_site_label
 _atom_site_symmetry_multiplicity
 _atom_site_fract_x
 _atom_site_fract_y
 _atom_site_fract_z
 _atom_site_occupancy
  Ti  Ti0  1  0.60658095  0.39342535  0.74998277  1.0
  Ti  Ti1  1  0.39341545  0.60657370  0.25000827  1.0
  Fe  Fe2  1  0.87032201  0.12969032  0.24999698  1.0
  Fe  Fe3  1  0.12968587  0.87031666  0.75000637  1.0
  O  O4  1  0.37368715  0.11242198  0.24734406  1.0
  O  O5  1  0.88757179  0.62632298  0.25265288  1.0
  O  O6  1  0.11241683  0.37368411  0.74734911  1.0
  O  O7  1  0.62631995  0.88756490  0.75265957  1.0
