# generated using pymatgen
data_TiH2Cl
_symmetry_space_group_name_H-M   'P 1'
_cell_length_a   11.82982785
_cell_length_b   11.83192952
_cell_length_c   3.35076445
_cell_angle_alpha   92.27952536
_cell_angle_beta   92.29909606
_cell_angle_gamma   158.06592766
_symmetry_Int_Tables_number   1
_chemical_formula_structural   TiH2Cl
_chemical_formula_sum   'Ti2 H4 Cl2'
_cell_volume   171.28667922
_cell_formula_units_Z   2
loop_
 _symmetry_equiv_pos_site_id
 _symmetry_equiv_pos_as_xyz
  1  'x, y, z'
loop_
 _atom_site_type_symbol
 _atom_site_label
 _atom_site_symmetry_multiplicity
 _atom_site_fract_x
 _atom_site_fract_y
 _atom_site_fract_z
 _atom_site_occupancy
  Ti  Ti0  1  0.50000017  0.00000011  0.00000026  1.0
  Ti  Ti1  1  0.99999986  0.49999982  0.49999979  1.0
  H  H2  1  0.02613753  0.13458795  0.23357473  1.0
  H  H3  1  0.86543827  0.97388720  0.26643546  1.0
  H  H4  1  0.13452741  0.02607852  0.73356630  1.0
  H  H5  1  0.97389676  0.86544637  0.76642352  1.0
  Cl  Cl6  1  0.66126834  0.33869326  0.25002599  1.0
  Cl  Cl7  1  0.33873167  0.66130676  0.74997396  1.0
