# generated using pymatgen
data_TiI2F
_symmetry_space_group_name_H-M   'P 1'
_cell_length_a   4.98209755
_cell_length_b   4.98227766
_cell_length_c   4.98235479
_cell_angle_alpha   60.00950569
_cell_angle_beta   60.01230382
_cell_angle_gamma   60.00967059
_symmetry_Int_Tables_number   1
_chemical_formula_structural   TiI2F
_chemical_formula_sum   'Ti1 I2 F1'
_cell_volume   87.47080222
_cell_formula_units_Z   1
loop_
 _symmetry_equiv_pos_site_id
 _symmetry_equiv_pos_as_xyz
  1  'x, y, z'
loop_
 _atom_site_type_symbol
 _atom_site_label
 _atom_site_symmetry_multiplicity
 _atom_site_fract_x
 _atom_site_fract_y
 _atom_site_fract_z
 _atom_site_occupancy
  Ti  Ti0  1  0.50000018  0.50000011  0.49999986  1.0
  I  I1  1  0.24999982  0.24999979  0.24999985  1.0
  I  I2  1  0.75000006  0.75000014  0.75000026  1.0
  F  F3  1  0.99999995  0.99999996  0.00000003  1.0
