# generated using pymatgen
data_TiMoS4
_symmetry_space_group_name_H-M   'P 1'
_cell_length_a   5.53719800
_cell_length_b   5.80299276
_cell_length_c   7.02443249
_cell_angle_alpha   89.99999874
_cell_angle_beta   90.00000303
_cell_angle_gamma   89.41860362
_symmetry_Int_Tables_number   1
_chemical_formula_structural   TiMoS4
_chemical_formula_sum   'Ti2 Mo2 S8'
_cell_volume   225.69969157
_cell_formula_units_Z   2
loop_
 _symmetry_equiv_pos_site_id
 _symmetry_equiv_pos_as_xyz
  1  'x, y, z'
loop_
 _atom_site_type_symbol
 _atom_site_label
 _atom_site_symmetry_multiplicity
 _atom_site_fract_x
 _atom_site_fract_y
 _atom_site_fract_z
 _atom_site_occupancy
  Ti  Ti0  1  0.50000000  0.25000000  0.59555179  1.0
  Ti  Ti1  1  0.50000001  0.75000001  0.40445090  1.0
  Mo  Mo2  1  0.99999999  0.24999999  0.08586149  1.0
  Mo  Mo3  1  0.00000002  0.75000000  0.91413092  1.0
  S  S4  1  0.76306992  0.42732243  0.37581996  1.0
  S  S5  1  0.23693003  0.07267755  0.37582000  1.0
  S  S6  1  0.23692764  0.57267841  0.62418130  1.0
  S  S7  1  0.76307239  0.92732161  0.62418126  1.0
  S  S8  1  0.73592386  0.92111987  0.12398084  1.0
  S  S9  1  0.26407606  0.57888015  0.12398088  1.0
  S  S10  1  0.26407952  0.07887474  0.87602035  1.0
  S  S11  1  0.73592057  0.42112524  0.87602030  1.0
