# generated using pymatgen
data_TiSnS2
_symmetry_space_group_name_H-M   'P 1'
_cell_length_a   3.44007677
_cell_length_b   3.44007790
_cell_length_c   8.04439007
_cell_angle_alpha   89.99966810
_cell_angle_beta   90.00045365
_cell_angle_gamma   119.99945612
_symmetry_Int_Tables_number   1
_chemical_formula_structural   TiSnS2
_chemical_formula_sum   'Ti1 Sn1 S2'
_cell_volume   82.44466256
_cell_formula_units_Z   1
loop_
 _symmetry_equiv_pos_site_id
 _symmetry_equiv_pos_as_xyz
  1  'x, y, z'
loop_
 _atom_site_type_symbol
 _atom_site_label
 _atom_site_symmetry_multiplicity
 _atom_site_fract_x
 _atom_site_fract_y
 _atom_site_fract_z
 _atom_site_occupancy
  Ti  Ti0  1  0.99999999  0.00000003  0.99999992  1.0
  Sn  Sn1  1  0.00000001  0.99999991  0.50000019  1.0
  S  S2  1  0.33333333  0.66666667  0.18214422  1.0
  S  S3  1  0.66666667  0.33333333  0.81785567  1.0
