# generated using pymatgen
data_TiVH4
_symmetry_space_group_name_H-M   'P 1'
_cell_length_a   4.35578306
_cell_length_b   4.34547462
_cell_length_c   4.34188018
_cell_angle_alpha   89.52297374
_cell_angle_beta   90.00000724
_cell_angle_gamma   90.00003802
_symmetry_Int_Tables_number   1
_chemical_formula_structural   TiVH4
_chemical_formula_sum   'Ti2 V2 H8'
_cell_volume   82.18001979
_cell_formula_units_Z   2
loop_
 _symmetry_equiv_pos_site_id
 _symmetry_equiv_pos_as_xyz
  1  'x, y, z'
loop_
 _atom_site_type_symbol
 _atom_site_label
 _atom_site_symmetry_multiplicity
 _atom_site_fract_x
 _atom_site_fract_y
 _atom_site_fract_z
 _atom_site_occupancy
  Ti  Ti0  1  0.25011195  0.49999994  0.75000006  1.0
  Ti  Ti1  1  0.74988717  0.50000006  0.24999994  1.0
  V  V2  1  0.74989774  0.99999996  0.74999993  1.0
  V  V3  1  0.25013053  0.00000004  0.25000007  1.0
  H  H4  1  0.00134145  0.76327480  0.99987893  1.0
  H  H5  1  0.99865001  0.76328163  0.49988320  1.0
  H  H6  1  0.49847595  0.76243020  0.00037532  1.0
  H  H7  1  0.50151888  0.76243824  0.50035356  1.0
  H  H8  1  0.49847598  0.23756977  0.49962466  1.0
  H  H9  1  0.50151889  0.23756178  0.99964645  1.0
  H  H10  1  0.00134144  0.23672513  0.50012110  1.0
  H  H11  1  0.99865001  0.23671845  0.00011677  1.0
