# generated using pymatgen
data_TiWSe2
_symmetry_space_group_name_H-M   'P 1'
_cell_length_a   3.38742013
_cell_length_b   3.38742299
_cell_length_c   6.92700856
_cell_angle_alpha   89.99995928
_cell_angle_beta   90.00003883
_cell_angle_gamma   119.99995969
_symmetry_Int_Tables_number   1
_chemical_formula_structural   TiWSe2
_chemical_formula_sum   'Ti1 W1 Se2'
_cell_volume   68.83590509
_cell_formula_units_Z   1
loop_
 _symmetry_equiv_pos_site_id
 _symmetry_equiv_pos_as_xyz
  1  'x, y, z'
loop_
 _atom_site_type_symbol
 _atom_site_label
 _atom_site_symmetry_multiplicity
 _atom_site_fract_x
 _atom_site_fract_y
 _atom_site_fract_z
 _atom_site_occupancy
  Ti  Ti0  1  0.00000002  0.00000001  0.00000000  1.0
  W  W1  1  0.99999998  0.99999999  0.50000000  1.0
  Se  Se2  1  0.33333333  0.66666667  0.75246266  1.0
  Se  Se3  1  0.66666667  0.33333333  0.24753734  1.0
