# generated using pymatgen
data_Tl8GeTe5
_symmetry_space_group_name_H-M   'P 1'
_cell_length_a   5.02862695
_cell_length_b   9.26763314
_cell_length_c   12.14383083
_cell_angle_alpha   111.37237165
_cell_angle_beta   100.29846632
_cell_angle_gamma   89.01550432
_symmetry_Int_Tables_number   1
_chemical_formula_structural   Tl8GeTe5
_chemical_formula_sum   'Tl8 Ge1 Te5'
_cell_volume   517.82395203
_cell_formula_units_Z   1
loop_
 _symmetry_equiv_pos_site_id
 _symmetry_equiv_pos_as_xyz
  1  'x, y, z'
loop_
 _atom_site_type_symbol
 _atom_site_label
 _atom_site_symmetry_multiplicity
 _atom_site_fract_x
 _atom_site_fract_y
 _atom_site_fract_z
 _atom_site_occupancy
  Tl  Tl0  1  0.04425574  0.74391487  0.11422557  1.0
  Tl  Tl1  1  0.32904429  0.99778555  0.65279062  1.0
  Tl  Tl2  1  0.43613297  0.77950371  0.89938876  1.0
  Tl  Tl3  1  0.72010620  0.55906149  0.41675991  1.0
  Tl  Tl4  1  0.27989421  0.44093798  0.58323994  1.0
  Tl  Tl5  1  0.56386427  0.22050274  0.10060855  1.0
  Tl  Tl6  1  0.67095736  0.00221404  0.34721097  1.0
  Tl  Tl7  1  0.95574491  0.25608662  0.88577571  1.0
  Ge  Ge8  1  0.00000397  0.00000159  0.00000593  1.0
  Te  Te9  1  0.20084585  0.76512789  0.37888307  1.0
  Te  Te10  1  0.84876771  0.77391757  0.73524676  1.0
  Te  Te11  1  0.15122875  0.22607084  0.26474820  1.0
  Te  Te12  1  0.79915417  0.23487086  0.62111709  1.0
  Te  Te13  1  0.49999959  0.50000426  0.99999891  1.0
