# generated using pymatgen
data_TlAgI2
_symmetry_space_group_name_H-M   'P 1'
_cell_length_a   4.62553125
_cell_length_b   8.03108926
_cell_length_c   10.03856612
_cell_angle_alpha   74.42845517
_cell_angle_beta   89.99993866
_cell_angle_gamma   89.99999546
_symmetry_Int_Tables_number   1
_chemical_formula_structural   TlAgI2
_chemical_formula_sum   'Tl2 Ag2 I4'
_cell_volume   359.22579494
_cell_formula_units_Z   2
loop_
 _symmetry_equiv_pos_site_id
 _symmetry_equiv_pos_as_xyz
  1  'x, y, z'
loop_
 _atom_site_type_symbol
 _atom_site_label
 _atom_site_symmetry_multiplicity
 _atom_site_fract_x
 _atom_site_fract_y
 _atom_site_fract_z
 _atom_site_occupancy
  Tl  Tl0  1  0.49999996  0.99999999  0.50000003  1.0
  Tl  Tl1  1  0.00000004  0.50000009  0.50000000  1.0
  Ag  Ag2  1  0.49999997  0.49999999  0.00000003  1.0
  Ag  Ag3  1  0.00000002  0.00000001  0.00000003  1.0
  I  I4  1  0.99999984  0.60881556  0.16680774  1.0
  I  I5  1  0.00000013  0.39118441  0.83319221  1.0
  I  I6  1  0.49999982  0.11195669  0.16416669  1.0
  I  I7  1  0.50000021  0.88804326  0.83583327  1.0
