# generated using pymatgen
data_TlAuBr2
_symmetry_space_group_name_H-M   'P 1'
_cell_length_a   4.42262433
_cell_length_b   4.42389157
_cell_length_c   7.35018979
_cell_angle_alpha   90.01033124
_cell_angle_beta   90.00913375
_cell_angle_gamma   119.99557336
_symmetry_Int_Tables_number   1
_chemical_formula_structural   TlAuBr2
_chemical_formula_sum   'Tl1 Au1 Br2'
_cell_volume   124.54693796
_cell_formula_units_Z   1
loop_
 _symmetry_equiv_pos_site_id
 _symmetry_equiv_pos_as_xyz
  1  'x, y, z'
loop_
 _atom_site_type_symbol
 _atom_site_label
 _atom_site_symmetry_multiplicity
 _atom_site_fract_x
 _atom_site_fract_y
 _atom_site_fract_z
 _atom_site_occupancy
  Tl  Tl0  1  0.00000000  0.00000000  0.00000000  1.0
  Au  Au1  1  0.00000000  0.00000000  0.50000001  1.0
  Br  Br2  1  0.33337334  0.66666667  0.30124491  1.0
  Br  Br3  1  0.66666667  0.33328692  0.69875509  1.0
