# generated using pymatgen
data_TlHgCl2
_symmetry_space_group_name_H-M   'P 1'
_cell_length_a   5.40128801
_cell_length_b   5.40128637
_cell_length_c   5.40128453
_cell_angle_alpha   59.99982099
_cell_angle_beta   59.99977304
_cell_angle_gamma   59.99975489
_symmetry_Int_Tables_number   1
_chemical_formula_structural   TlHgCl2
_chemical_formula_sum   'Tl1 Hg1 Cl2'
_cell_volume   111.42290065
_cell_formula_units_Z   1
loop_
 _symmetry_equiv_pos_site_id
 _symmetry_equiv_pos_as_xyz
  1  'x, y, z'
loop_
 _atom_site_type_symbol
 _atom_site_label
 _atom_site_symmetry_multiplicity
 _atom_site_fract_x
 _atom_site_fract_y
 _atom_site_fract_z
 _atom_site_occupancy
  Tl  Tl0  1  0.00000006  0.00000001  0.00000004  1.0
  Hg  Hg1  1  0.49999995  0.50000001  0.50000010  1.0
  Cl  Cl2  1  0.74999983  0.74999999  0.75000010  1.0
  Cl  Cl3  1  0.25000017  0.24999999  0.24999977  1.0
