# generated using pymatgen
data_TlIr5O8
_symmetry_space_group_name_H-M   'P 1'
_cell_length_a   3.19529723
_cell_length_b   7.84328325
_cell_length_c   8.13146448
_cell_angle_alpha   107.24041113
_cell_angle_beta   101.33567484
_cell_angle_gamma   89.99648228
_symmetry_Int_Tables_number   1
_chemical_formula_structural   TlIr5O8
_chemical_formula_sum   'Tl1 Ir5 O8'
_cell_volume   190.46578208
_cell_formula_units_Z   1
loop_
 _symmetry_equiv_pos_site_id
 _symmetry_equiv_pos_as_xyz
  1  'x, y, z'
loop_
 _atom_site_type_symbol
 _atom_site_label
 _atom_site_symmetry_multiplicity
 _atom_site_fract_x
 _atom_site_fract_y
 _atom_site_fract_z
 _atom_site_occupancy
  Tl  Tl0  1  0.99999974  0.00000002  0.99999980  1.0
  Ir  Ir1  1  0.20191577  0.82441175  0.40381937  1.0
  Ir  Ir2  1  0.84025514  0.55416266  0.68056924  1.0
  Ir  Ir3  1  0.15974489  0.44583735  0.31943079  1.0
  Ir  Ir4  1  0.79808427  0.17558825  0.59618065  1.0
  Ir  Ir5  1  0.50000002  0.50000001  0.00000003  1.0
  O  O6  1  0.08160037  0.61093656  0.16316654  1.0
  O  O7  1  0.32009267  0.02728652  0.64013510  1.0
  O  O8  1  0.41765593  0.66860810  0.83535780  1.0
  O  O9  1  0.73424118  0.66196119  0.46847802  1.0
  O  O10  1  0.26575885  0.33803876  0.53152198  1.0
  O  O11  1  0.58234410  0.33139188  0.16464223  1.0
  O  O12  1  0.67990738  0.97271347  0.35986494  1.0
  O  O13  1  0.91839967  0.38906346  0.83683351  1.0
