# generated using pymatgen
data_TlTeF
_symmetry_space_group_name_H-M   'P 1'
_cell_length_a   4.81361893
_cell_length_b   4.81361818
_cell_length_c   4.81361901
_cell_angle_alpha   59.99916951
_cell_angle_beta   59.99914362
_cell_angle_gamma   59.99917093
_symmetry_Int_Tables_number   1
_chemical_formula_structural   TlTeF
_chemical_formula_sum   'Tl1 Te1 F1'
_cell_volume   78.86636112
_cell_formula_units_Z   1
loop_
 _symmetry_equiv_pos_site_id
 _symmetry_equiv_pos_as_xyz
  1  'x, y, z'
loop_
 _atom_site_type_symbol
 _atom_site_label
 _atom_site_symmetry_multiplicity
 _atom_site_fract_x
 _atom_site_fract_y
 _atom_site_fract_z
 _atom_site_occupancy
  Tl  Tl0  1  0.49999993  0.49999994  0.49999992  1.0
  Te  Te1  1  0.25000002  0.25000004  0.25000004  1.0
  F  F2  1  0.00000004  0.00000003  0.00000004  1.0
