# generated using pymatgen
data_Tm2HN
_symmetry_space_group_name_H-M   'P 1'
_cell_length_a   4.20435926
_cell_length_b   4.20435870
_cell_length_c   4.20435875
_cell_angle_alpha   60.00000551
_cell_angle_beta   59.99999704
_cell_angle_gamma   59.99999576
_symmetry_Int_Tables_number   1
_chemical_formula_structural   Tm2HN
_chemical_formula_sum   'Tm2 H1 N1'
_cell_volume   52.55140643
_cell_formula_units_Z   1
loop_
 _symmetry_equiv_pos_site_id
 _symmetry_equiv_pos_as_xyz
  1  'x, y, z'
loop_
 _atom_site_type_symbol
 _atom_site_label
 _atom_site_symmetry_multiplicity
 _atom_site_fract_x
 _atom_site_fract_y
 _atom_site_fract_z
 _atom_site_occupancy
  Tm  Tm0  1  0.24999999  0.25000000  0.24999999  1.0
  Tm  Tm1  1  0.75000000  0.75000000  0.75000001  1.0
  H  H2  1  0.00000000  0.00000000  0.00000000  1.0
  N  N3  1  0.50000001  0.50000000  0.50000000  1.0
