# generated using pymatgen
data_Tm2SbP
_symmetry_space_group_name_H-M   'P 1'
_cell_length_a   5.13945382
_cell_length_b   5.13945414
_cell_length_c   5.13945400
_cell_angle_alpha   60.00003450
_cell_angle_beta   60.00003648
_cell_angle_gamma   60.00003334
_symmetry_Int_Tables_number   1
_chemical_formula_structural   Tm2SbP
_chemical_formula_sum   'Tm2 Sb1 P1'
_cell_volume   95.99227647
_cell_formula_units_Z   1
loop_
 _symmetry_equiv_pos_site_id
 _symmetry_equiv_pos_as_xyz
  1  'x, y, z'
loop_
 _atom_site_type_symbol
 _atom_site_label
 _atom_site_symmetry_multiplicity
 _atom_site_fract_x
 _atom_site_fract_y
 _atom_site_fract_z
 _atom_site_occupancy
  Tm  Tm0  1  0.49999929  0.49999929  0.49999928  1.0
  Tm  Tm1  1  0.00000002  0.00000007  0.00000005  1.0
  Sb  Sb2  1  0.75000001  0.74999990  0.74999997  1.0
  P  P3  1  0.25000069  0.25000073  0.25000070  1.0
