# generated using pymatgen
data_TmClO
_symmetry_space_group_name_H-M   'P 1'
_cell_length_a   4.22650174
_cell_length_b   4.22650136
_cell_length_c   4.22650291
_cell_angle_alpha   59.99998697
_cell_angle_beta   60.00000530
_cell_angle_gamma   59.99996738
_symmetry_Int_Tables_number   1
_chemical_formula_structural   TmClO
_chemical_formula_sum   'Tm1 Cl1 O1'
_cell_volume   53.38608913
_cell_formula_units_Z   1
loop_
 _symmetry_equiv_pos_site_id
 _symmetry_equiv_pos_as_xyz
  1  'x, y, z'
loop_
 _atom_site_type_symbol
 _atom_site_label
 _atom_site_symmetry_multiplicity
 _atom_site_fract_x
 _atom_site_fract_y
 _atom_site_fract_z
 _atom_site_occupancy
  Tm  Tm0  1  0.99999996  0.00000008  0.99999993  1.0
  Cl  Cl1  1  0.75000007  0.74999996  0.75000001  1.0
  O  O2  1  0.24999997  0.24999997  0.25000006  1.0
