# generated using pymatgen
data_TmH2I
_symmetry_space_group_name_H-M   'P 1'
_cell_length_a   3.90756889
_cell_length_b   3.90758866
_cell_length_c   5.92670005
_cell_angle_alpha   90.00014433
_cell_angle_beta   89.99988441
_cell_angle_gamma   119.99982226
_symmetry_Int_Tables_number   1
_chemical_formula_structural   TmH2I
_chemical_formula_sum   'Tm1 H2 I1'
_cell_volume   78.37180363
_cell_formula_units_Z   1
loop_
 _symmetry_equiv_pos_site_id
 _symmetry_equiv_pos_as_xyz
  1  'x, y, z'
loop_
 _atom_site_type_symbol
 _atom_site_label
 _atom_site_symmetry_multiplicity
 _atom_site_fract_x
 _atom_site_fract_y
 _atom_site_fract_z
 _atom_site_occupancy
  Tm  Tm0  1  0.00000001  0.99999996  0.00000000  1.0
  H  H1  1  0.66666667  0.33333333  0.99133368  1.0
  H  H2  1  0.33333333  0.66666667  0.00866631  1.0
  I  I3  1  0.00000001  0.00000003  0.50000002  1.0
