# generated using pymatgen
data_TmH4Pt
_symmetry_space_group_name_H-M   'P 1'
_cell_length_a   4.14298455
_cell_length_b   7.18691293
_cell_length_c   4.53524636
_cell_angle_alpha   90.00130954
_cell_angle_beta   90.00274332
_cell_angle_gamma   61.99620898
_symmetry_Int_Tables_number   1
_chemical_formula_structural   TmH4Pt
_chemical_formula_sum   'Tm2 H8 Pt2'
_cell_volume   119.22744213
_cell_formula_units_Z   2
loop_
 _symmetry_equiv_pos_site_id
 _symmetry_equiv_pos_as_xyz
  1  'x, y, z'
loop_
 _atom_site_type_symbol
 _atom_site_label
 _atom_site_symmetry_multiplicity
 _atom_site_fract_x
 _atom_site_fract_y
 _atom_site_fract_z
 _atom_site_occupancy
  Tm  Tm0  1  0.50012878  0.74996083  0.25330309  1.0
  Tm  Tm1  1  0.49987122  0.25003917  0.74669701  1.0
  H  H2  1  0.80365017  0.42830215  0.97336083  1.0
  H  H3  1  0.19635052  0.57169777  0.02663927  1.0
  H  H4  1  0.19636561  0.07163643  0.97339786  1.0
  H  H5  1  0.80363378  0.92836362  0.02660224  1.0
  H  H6  1  0.80148918  0.92804275  0.48862905  1.0
  H  H7  1  0.19851047  0.07195738  0.51137080  1.0
  H  H8  1  0.19848876  0.57204140  0.48861185  1.0
  H  H9  1  0.80151149  0.42795852  0.51138801  1.0
  Pt  Pt10  1  0.99998956  0.75003384  0.75818684  1.0
  Pt  Pt11  1  0.00001046  0.24996614  0.24181315  1.0
