# generated using pymatgen
data_TmIrI4
_symmetry_space_group_name_H-M   'P 1'
_cell_length_a   6.75896239
_cell_length_b   7.24795867
_cell_length_c   8.32646285
_cell_angle_alpha   89.99872066
_cell_angle_beta   90.00053831
_cell_angle_gamma   91.69978201
_symmetry_Int_Tables_number   1
_chemical_formula_structural   TmIrI4
_chemical_formula_sum   'Tm2 Ir2 I8'
_cell_volume   407.72293634
_cell_formula_units_Z   2
loop_
 _symmetry_equiv_pos_site_id
 _symmetry_equiv_pos_as_xyz
  1  'x, y, z'
loop_
 _atom_site_type_symbol
 _atom_site_label
 _atom_site_symmetry_multiplicity
 _atom_site_fract_x
 _atom_site_fract_y
 _atom_site_fract_z
 _atom_site_occupancy
  Tm  Tm0  1  0.50000030  0.74999972  0.35822522  1.0
  Tm  Tm1  1  0.49999968  0.25000033  0.64177486  1.0
  Ir  Ir2  1  0.99999805  0.75000246  0.86858605  1.0
  Ir  Ir3  1  0.00000197  0.24999754  0.13141397  1.0
  I  I4  1  0.77139968  0.42849302  0.89243592  1.0
  I  I5  1  0.22860025  0.57150718  0.10756386  1.0
  I  I6  1  0.22860251  0.07150794  0.89243305  1.0
  I  I7  1  0.77139762  0.92849179  0.10756676  1.0
  I  I8  1  0.75773985  0.91352535  0.62659916  1.0
  I  I9  1  0.24226001  0.08647469  0.37340101  1.0
  I  I10  1  0.24226345  0.58647463  0.62659664  1.0
  I  I11  1  0.75773664  0.41352536  0.37340350  1.0
