# generated using pymatgen
data_TmNbSe4
_symmetry_space_group_name_H-M   'P 1'
_cell_length_a   6.93920134
_cell_length_b   6.62583917
_cell_length_c   6.86663167
_cell_angle_alpha   75.32156975
_cell_angle_beta   90.00098366
_cell_angle_gamma   89.99800329
_symmetry_Int_Tables_number   1
_chemical_formula_structural   TmNbSe4
_chemical_formula_sum   'Tm2 Nb2 Se8'
_cell_volume   305.41031378
_cell_formula_units_Z   2
loop_
 _symmetry_equiv_pos_site_id
 _symmetry_equiv_pos_as_xyz
  1  'x, y, z'
loop_
 _atom_site_type_symbol
 _atom_site_label
 _atom_site_symmetry_multiplicity
 _atom_site_fract_x
 _atom_site_fract_y
 _atom_site_fract_z
 _atom_site_occupancy
  Tm  Tm0  1  0.24630383  0.00000203  0.74999842  1.0
  Tm  Tm1  1  0.75369580  0.99999803  0.25000157  1.0
  Nb  Nb2  1  0.67501346  0.49999096  0.75000096  1.0
  Nb  Nb3  1  0.32498640  0.50000908  0.24999902  1.0
  Se  Se4  1  0.92741571  0.23174840  0.87300614  1.0
  Se  Se5  1  0.43296261  0.25561940  0.01463580  1.0
  Se  Se6  1  0.43296258  0.74437408  0.48537155  1.0
  Se  Se7  1  0.92741662  0.76825312  0.62699381  1.0
  Se  Se8  1  0.07258397  0.23174824  0.37300627  1.0
  Se  Se9  1  0.56703708  0.25562553  0.51462842  1.0
  Se  Se10  1  0.56703713  0.74438095  0.98536434  1.0
  Se  Se11  1  0.07258481  0.76825018  0.12699371  1.0
