# generated using pymatgen
data_TmRuCl4
_symmetry_space_group_name_H-M   'P 1'
_cell_length_a   7.63576792
_cell_length_b   7.05112834
_cell_length_c   7.63037553
_cell_angle_alpha   89.98980588
_cell_angle_beta   90.01224035
_cell_angle_gamma   126.84942454
_symmetry_Int_Tables_number   1
_chemical_formula_structural   TmRuCl4
_chemical_formula_sum   'Tm2 Ru2 Cl8'
_cell_volume   328.74834292
_cell_formula_units_Z   2
loop_
 _symmetry_equiv_pos_site_id
 _symmetry_equiv_pos_as_xyz
  1  'x, y, z'
loop_
 _atom_site_type_symbol
 _atom_site_label
 _atom_site_symmetry_multiplicity
 _atom_site_fract_x
 _atom_site_fract_y
 _atom_site_fract_z
 _atom_site_occupancy
  Tm  Tm0  1  0.99975316  0.74982838  0.62317480  1.0
  Tm  Tm1  1  0.00021332  0.25015484  0.37682430  1.0
  Ru  Ru2  1  0.50011196  0.25016157  0.60134911  1.0
  Ru  Ru3  1  0.49990862  0.74986928  0.39865379  1.0
  Cl  Cl4  1  0.77002493  0.92722509  0.63278268  1.0
  Cl  Cl5  1  0.22992334  0.57287655  0.63284890  1.0
  Cl  Cl6  1  0.22995998  0.07276354  0.36722550  1.0
  Cl  Cl7  1  0.77006856  0.42713843  0.36713269  1.0
  Cl  Cl8  1  0.24413413  0.58199560  0.15865521  1.0
  Cl  Cl9  1  0.75590012  0.91800993  0.15884805  1.0
  Cl  Cl10  1  0.75588890  0.41800099  0.84135408  1.0
  Cl  Cl11  1  0.24411298  0.08197581  0.84115090  1.0
