# generated using pymatgen
data_TmSb2Pt
_symmetry_space_group_name_H-M   'P 1'
_cell_length_a   5.07778587
_cell_length_b   5.07778612
_cell_length_c   5.07778586
_cell_angle_alpha   60.00004032
_cell_angle_beta   60.00004299
_cell_angle_gamma   60.00004052
_symmetry_Int_Tables_number   1
_chemical_formula_structural   TmSb2Pt
_chemical_formula_sum   'Tm1 Sb2 Pt1'
_cell_volume   92.57816692
_cell_formula_units_Z   1
loop_
 _symmetry_equiv_pos_site_id
 _symmetry_equiv_pos_as_xyz
  1  'x, y, z'
loop_
 _atom_site_type_symbol
 _atom_site_label
 _atom_site_symmetry_multiplicity
 _atom_site_fract_x
 _atom_site_fract_y
 _atom_site_fract_z
 _atom_site_occupancy
  Tm  Tm0  1  0.75000005  0.74999991  0.75000004  1.0
  Sb  Sb1  1  0.49999914  0.49999920  0.49999916  1.0
  Sb  Sb2  1  0.00000003  0.00000005  0.00000005  1.0
  Pt  Pt3  1  0.25000077  0.25000083  0.25000076  1.0
