# generated using pymatgen
data_TmSbO4
_symmetry_space_group_name_H-M   'P 1'
_cell_length_a   5.36478513
_cell_length_b   7.66939687
_cell_length_c   7.55981219
_cell_angle_alpha   81.56392630
_cell_angle_beta   89.99823727
_cell_angle_gamma   89.99717666
_symmetry_Int_Tables_number   1
_chemical_formula_structural   TmSbO4
_chemical_formula_sum   'Tm4 Sb4 O16'
_cell_volume   307.68048258
_cell_formula_units_Z   4
loop_
 _symmetry_equiv_pos_site_id
 _symmetry_equiv_pos_as_xyz
  1  'x, y, z'
loop_
 _atom_site_type_symbol
 _atom_site_label
 _atom_site_symmetry_multiplicity
 _atom_site_fract_x
 _atom_site_fract_y
 _atom_site_fract_z
 _atom_site_occupancy
  Tm  Tm0  1  0.72677667  0.85487054  0.38430145  1.0
  Tm  Tm1  1  0.22678648  0.14511920  0.11570630  1.0
  Tm  Tm2  1  0.77321580  0.85487850  0.88429473  1.0
  Tm  Tm3  1  0.27322555  0.14513161  0.61569751  1.0
  Sb  Sb4  1  0.23339243  0.66392623  0.19065130  1.0
  Sb  Sb5  1  0.73341252  0.33607446  0.30935952  1.0
  Sb  Sb6  1  0.76660878  0.33607490  0.80934801  1.0
  Sb  Sb7  1  0.26658896  0.66392440  0.69064192  1.0
  O  O8  1  0.51927185  0.82049683  0.11663949  1.0
  O  O9  1  0.52758076  0.11023993  0.32348115  1.0
  O  O10  1  0.09490507  0.42964245  0.69039397  1.0
  O  O11  1  0.98071584  0.82047701  0.61664642  1.0
  O  O12  1  0.97242228  0.11023203  0.82347750  1.0
  O  O13  1  0.90509612  0.57035658  0.30960498  1.0
  O  O14  1  0.48072455  0.17950722  0.88335978  1.0
  O  O15  1  0.38874951  0.67298020  0.43680591  1.0
  O  O16  1  0.11124664  0.67298181  0.93680210  1.0
  O  O17  1  0.59488932  0.57036422  0.80960805  1.0
  O  O18  1  0.02757536  0.88976760  0.17651755  1.0
  O  O19  1  0.88875350  0.32701352  0.06319825  1.0
  O  O20  1  0.40511217  0.42963663  0.19039285  1.0
  O  O21  1  0.01928061  0.17951917  0.38335435  1.0
  O  O22  1  0.47241676  0.88976063  0.67652391  1.0
  O  O23  1  0.61125047  0.32702434  0.56319301  1.0
