# generated using pymatgen
data_TmSiSb2
_symmetry_space_group_name_H-M   'P 1'
_cell_length_a   5.23537027
_cell_length_b   5.23537070
_cell_length_c   5.23537042
_cell_angle_alpha   59.99994544
_cell_angle_beta   59.99994548
_cell_angle_gamma   59.99994482
_symmetry_Int_Tables_number   1
_chemical_formula_structural   TmSiSb2
_chemical_formula_sum   'Tm1 Si1 Sb2'
_cell_volume   101.46744354
_cell_formula_units_Z   1
loop_
 _symmetry_equiv_pos_site_id
 _symmetry_equiv_pos_as_xyz
  1  'x, y, z'
loop_
 _atom_site_type_symbol
 _atom_site_label
 _atom_site_symmetry_multiplicity
 _atom_site_fract_x
 _atom_site_fract_y
 _atom_site_fract_z
 _atom_site_occupancy
  Tm  Tm0  1  0.25000006  0.24999996  0.24999983  1.0
  Si  Si1  1  0.74999899  0.74999899  0.74999901  1.0
  Sb  Sb2  1  0.99999993  0.99999998  0.00000008  1.0
  Sb  Sb3  1  0.49999902  0.49999907  0.49999907  1.0
