# generated using pymatgen
data_TmSnO2
_symmetry_space_group_name_H-M   'P 1'
_cell_length_a   4.36028872
_cell_length_b   4.36028866
_cell_length_c   4.36028901
_cell_angle_alpha   60.00026422
_cell_angle_beta   60.00026159
_cell_angle_gamma   60.00025809
_symmetry_Int_Tables_number   1
_chemical_formula_structural   TmSnO2
_chemical_formula_sum   'Tm1 Sn1 O2'
_cell_volume   58.61831631
_cell_formula_units_Z   1
loop_
 _symmetry_equiv_pos_site_id
 _symmetry_equiv_pos_as_xyz
  1  'x, y, z'
loop_
 _atom_site_type_symbol
 _atom_site_label
 _atom_site_symmetry_multiplicity
 _atom_site_fract_x
 _atom_site_fract_y
 _atom_site_fract_z
 _atom_site_occupancy
  Tm  Tm0  1  0.75000089  0.75000075  0.75000088  1.0
  Sn  Sn1  1  0.25000071  0.25000063  0.25000070  1.0
  O  O2  1  0.49999813  0.49999821  0.49999807  1.0
  O  O3  1  0.00000026  0.00000041  0.00000035  1.0
