# generated using pymatgen
data_TmTe4As
_symmetry_space_group_name_H-M   'P 1'
_cell_length_a   6.42093054
_cell_length_b   7.74215891
_cell_length_c   8.58971760
_cell_angle_alpha   85.20589140
_cell_angle_beta   100.12365296
_cell_angle_gamma   92.62883890
_symmetry_Int_Tables_number   1
_chemical_formula_structural   TmTe4As
_chemical_formula_sum   'Tm2 Te8 As2'
_cell_volume   418.68037818
_cell_formula_units_Z   2
loop_
 _symmetry_equiv_pos_site_id
 _symmetry_equiv_pos_as_xyz
  1  'x, y, z'
loop_
 _atom_site_type_symbol
 _atom_site_label
 _atom_site_symmetry_multiplicity
 _atom_site_fract_x
 _atom_site_fract_y
 _atom_site_fract_z
 _atom_site_occupancy
  Tm  Tm0  1  0.47861373  0.74063915  0.39613733  1.0
  Tm  Tm1  1  0.52138623  0.25936081  0.60386262  1.0
  Te  Te2  1  0.70023546  0.44590588  0.89726841  1.0
  Te  Te3  1  0.29976455  0.55409407  0.10273161  1.0
  Te  Te4  1  0.31851875  0.05734201  0.89136758  1.0
  Te  Te5  1  0.68148128  0.94265806  0.10863242  1.0
  Te  Te6  1  0.78370342  0.93860665  0.63511224  1.0
  Te  Te7  1  0.21629656  0.06139328  0.36488772  1.0
  Te  Te8  1  0.19476983  0.53268140  0.60940244  1.0
  Te  Te9  1  0.80523017  0.46731865  0.39059756  1.0
  As  As10  1  0.90220605  0.74944074  0.92074058  1.0
  As  As11  1  0.09779398  0.25055931  0.07925948  1.0
