# generated using pymatgen
data_TmVN2
_symmetry_space_group_name_H-M   'P 1'
_cell_length_a   3.12484807
_cell_length_b   6.30420087
_cell_length_c   5.41653047
_cell_angle_alpha   64.48650225
_cell_angle_beta   89.99850164
_cell_angle_gamma   75.64622795
_symmetry_Int_Tables_number   1
_chemical_formula_structural   TmVN2
_chemical_formula_sum   'Tm2 V2 N4'
_cell_volume   92.59437096
_cell_formula_units_Z   2
loop_
 _symmetry_equiv_pos_site_id
 _symmetry_equiv_pos_as_xyz
  1  'x, y, z'
loop_
 _atom_site_type_symbol
 _atom_site_label
 _atom_site_symmetry_multiplicity
 _atom_site_fract_x
 _atom_site_fract_y
 _atom_site_fract_z
 _atom_site_occupancy
  Tm  Tm0  1  0.24999549  0.50000861  0.24999556  1.0
  Tm  Tm1  1  0.75000442  0.49999138  0.75000451  1.0
  V  V2  1  0.49999511  0.00000001  0.49999989  1.0
  V  V3  1  0.99999727  0.00000000  0.99999996  1.0
  N  N4  1  0.39102629  0.21791544  0.05833856  1.0
  N  N5  1  0.89102513  0.21791613  0.55833982  1.0
  N  N6  1  0.60896722  0.78208459  0.94166149  1.0
  N  N7  1  0.10896807  0.78208385  0.44166021  1.0
