# generated using pymatgen
data_TmWI4
_symmetry_space_group_name_H-M   'P 1'
_cell_length_a   8.28927869
_cell_length_b   6.65357731
_cell_length_c   7.21050139
_cell_angle_alpha   90.70140150
_cell_angle_beta   90.00046205
_cell_angle_gamma   89.99975691
_symmetry_Int_Tables_number   1
_chemical_formula_structural   TmWI4
_chemical_formula_sum   'Tm2 W2 I8'
_cell_volume   397.65355626
_cell_formula_units_Z   2
loop_
 _symmetry_equiv_pos_site_id
 _symmetry_equiv_pos_as_xyz
  1  'x, y, z'
loop_
 _atom_site_type_symbol
 _atom_site_label
 _atom_site_symmetry_multiplicity
 _atom_site_fract_x
 _atom_site_fract_y
 _atom_site_fract_z
 _atom_site_occupancy
  Tm  Tm0  1  0.62770037  0.50000005  0.24999987  1.0
  Tm  Tm1  1  0.37230072  0.49999994  0.75000010  1.0
  W  W2  1  0.12052363  0.99999992  0.24999996  1.0
  W  W3  1  0.87947490  0.00000009  0.75000004  1.0
  I  I4  1  0.10959214  0.76671346  0.92669215  1.0
  I  I5  1  0.10959177  0.23328609  0.57330827  1.0
  I  I6  1  0.89040631  0.23328608  0.07330470  1.0
  I  I7  1  0.89040667  0.76671437  0.42669490  1.0
  I  I8  1  0.36412112  0.76654030  0.41344125  1.0
  I  I9  1  0.36412093  0.23345957  0.08655907  1.0
  I  I10  1  0.63588061  0.23345940  0.58655984  1.0
  I  I11  1  0.63588082  0.76654072  0.91343985  1.0
