# generated using pymatgen
data_VBr4F
_symmetry_space_group_name_H-M   'P 1'
_cell_length_a   6.94987337
_cell_length_b   8.03485732
_cell_length_c   6.63864547
_cell_angle_alpha   90.04307973
_cell_angle_beta   78.40935379
_cell_angle_gamma   90.05554680
_symmetry_Int_Tables_number   1
_chemical_formula_structural   VBr4F
_chemical_formula_sum   'V2 Br8 F2'
_cell_volume   363.15047278
_cell_formula_units_Z   2
loop_
 _symmetry_equiv_pos_site_id
 _symmetry_equiv_pos_as_xyz
  1  'x, y, z'
loop_
 _atom_site_type_symbol
 _atom_site_label
 _atom_site_symmetry_multiplicity
 _atom_site_fract_x
 _atom_site_fract_y
 _atom_site_fract_z
 _atom_site_occupancy
  V  V0  1  0.50846902  0.36209875  0.24930840  1.0
  V  V1  1  0.50843353  0.63756508  0.74957415  1.0
  Br  Br2  1  0.27208999  0.16842269  0.40255339  1.0
  Br  Br3  1  0.75631797  0.15836535  0.10211109  1.0
  Br  Br4  1  0.75608453  0.84184434  0.60293086  1.0
  Br  Br5  1  0.27196023  0.83079655  0.90328384  1.0
  Br  Br6  1  0.32104330  0.61312643  0.44685730  1.0
  Br  Br7  1  0.71984428  0.59164073  0.00928737  1.0
  Br  Br8  1  0.71994262  0.40848918  0.50901816  1.0
  Br  Br9  1  0.32122321  0.38615215  0.94654910  1.0
  F  F10  1  0.92218189  0.80286274  0.28955496  1.0
  F  F11  1  0.92240943  0.19863599  0.78897138  1.0
