# generated using pymatgen
data_VCrTe4
_symmetry_space_group_name_H-M   'P 1'
_cell_length_a   5.75432764
_cell_length_b   6.93070179
_cell_length_c   7.78737704
_cell_angle_alpha   89.99997015
_cell_angle_beta   90.00000551
_cell_angle_gamma   90.33840175
_symmetry_Int_Tables_number   1
_chemical_formula_structural   VCrTe4
_chemical_formula_sum   'V2 Cr2 Te8'
_cell_volume   310.56708537
_cell_formula_units_Z   2
loop_
 _symmetry_equiv_pos_site_id
 _symmetry_equiv_pos_as_xyz
  1  'x, y, z'
loop_
 _atom_site_type_symbol
 _atom_site_label
 _atom_site_symmetry_multiplicity
 _atom_site_fract_x
 _atom_site_fract_y
 _atom_site_fract_z
 _atom_site_occupancy
  V  V0  1  0.49999999  0.74999970  0.37467848  1.0
  V  V1  1  0.50000000  0.25000028  0.62532290  1.0
  Cr  Cr2  1  0.99999998  0.75000002  0.87215595  1.0
  Cr  Cr3  1  0.00000003  0.24999997  0.12784236  1.0
  Te  Te4  1  0.72963589  0.42945573  0.89136497  1.0
  Te  Te5  1  0.27036193  0.57053597  0.10863574  1.0
  Te  Te6  1  0.27036413  0.07054431  0.89136498  1.0
  Te  Te7  1  0.72963803  0.92946401  0.10863573  1.0
  Te  Te8  1  0.77323911  0.93087905  0.61065439  1.0
  Te  Te9  1  0.22675589  0.06912774  0.38934507  1.0
  Te  Te10  1  0.22676057  0.56912101  0.61065446  1.0
  Te  Te11  1  0.77324445  0.43087220  0.38934499  1.0
