# generated using pymatgen
data_WBr4Cl
_symmetry_space_group_name_H-M   'P 1'
_cell_length_a   8.13068468
_cell_length_b   7.57953142
_cell_length_c   6.76164824
_cell_angle_alpha   82.22837223
_cell_angle_beta   90.00217331
_cell_angle_gamma   89.99512525
_symmetry_Int_Tables_number   1
_chemical_formula_structural   WBr4Cl
_chemical_formula_sum   'W2 Br8 Cl2'
_cell_volume   412.87119805
_cell_formula_units_Z   2
loop_
 _symmetry_equiv_pos_site_id
 _symmetry_equiv_pos_as_xyz
  1  'x, y, z'
loop_
 _atom_site_type_symbol
 _atom_site_label
 _atom_site_symmetry_multiplicity
 _atom_site_fract_x
 _atom_site_fract_y
 _atom_site_fract_z
 _atom_site_occupancy
  W  W0  1  0.14364860  0.99997990  0.25000713  1.0
  W  W1  1  0.85635488  0.00002010  0.74999290  1.0
  Br  Br2  1  0.09916311  0.82026200  0.95560442  1.0
  Br  Br3  1  0.09916601  0.17974079  0.54439531  1.0
  Br  Br4  1  0.90083569  0.17973802  0.04439377  1.0
  Br  Br5  1  0.90083280  0.82025918  0.45560651  1.0
  Br  Br6  1  0.33558310  0.77394742  0.37939751  1.0
  Br  Br7  1  0.33560276  0.22607723  0.12058419  1.0
  Br  Br8  1  0.66441698  0.22605261  0.62060283  1.0
  Br  Br9  1  0.66439731  0.77392279  0.87941540  1.0
  Cl  Cl10  1  0.68852683  0.50000187  0.24999754  1.0
  Cl  Cl11  1  0.31147192  0.49999810  0.75000249  1.0
