# generated using pymatgen
data_Y2CS
_symmetry_space_group_name_H-M   'P 1'
_cell_length_a   3.81457829
_cell_length_b   6.72700675
_cell_length_c   6.81809392
_cell_angle_alpha   97.57031822
_cell_angle_beta   89.99999683
_cell_angle_gamma   89.99999039
_symmetry_Int_Tables_number   1
_chemical_formula_structural   Y2CS
_chemical_formula_sum   'Y4 C2 S2'
_cell_volume   173.43208205
_cell_formula_units_Z   2
loop_
 _symmetry_equiv_pos_site_id
 _symmetry_equiv_pos_as_xyz
  1  'x, y, z'
loop_
 _atom_site_type_symbol
 _atom_site_label
 _atom_site_symmetry_multiplicity
 _atom_site_fract_x
 _atom_site_fract_y
 _atom_site_fract_z
 _atom_site_occupancy
  Y  Y0  1  0.99999996  0.27072069  0.33931720  1.0
  Y  Y1  1  0.49999996  0.26680569  0.88208329  1.0
  Y  Y2  1  0.50000004  0.73319431  0.11791672  1.0
  Y  Y3  1  0.00000004  0.72927930  0.66068279  1.0
  C  C4  1  0.50000007  0.57918173  0.78384069  1.0
  C  C5  1  0.49999993  0.42081827  0.21615931  1.0
  S  S6  1  0.00000000  0.00000000  0.00000000  1.0
  S  S7  1  0.50000000  0.00000001  0.50000000  1.0
