# generated using pymatgen
data_YAgBr4
_symmetry_space_group_name_H-M   'P 1'
_cell_length_a   7.03578092
_cell_length_b   7.17841492
_cell_length_c   7.03494209
_cell_angle_alpha   89.43568929
_cell_angle_beta   90.00000016
_cell_angle_gamma   90.00000863
_symmetry_Int_Tables_number   1
_chemical_formula_structural   YAgBr4
_chemical_formula_sum   'Y2 Ag2 Br8'
_cell_volume   355.28782680
_cell_formula_units_Z   2
loop_
 _symmetry_equiv_pos_site_id
 _symmetry_equiv_pos_as_xyz
  1  'x, y, z'
loop_
 _atom_site_type_symbol
 _atom_site_label
 _atom_site_symmetry_multiplicity
 _atom_site_fract_x
 _atom_site_fract_y
 _atom_site_fract_z
 _atom_site_occupancy
  Y  Y0  1  0.74904985  0.49999998  0.25000001  1.0
  Y  Y1  1  0.25095015  0.50000002  0.75000000  1.0
  Ag  Ag2  1  0.75635103  0.00000001  0.74999998  1.0
  Ag  Ag3  1  0.24364899  0.99999999  0.25000002  1.0
  Br  Br4  1  0.44140174  0.27759094  0.06141900  1.0
  Br  Br5  1  0.44140180  0.72240907  0.43858100  1.0
  Br  Br6  1  0.94197149  0.27652780  0.94476371  1.0
  Br  Br7  1  0.94197150  0.72347222  0.55523630  1.0
  Br  Br8  1  0.05802854  0.72347221  0.05523625  1.0
  Br  Br9  1  0.05802851  0.27652778  0.44476372  1.0
  Br  Br10  1  0.55859817  0.27759092  0.56141902  1.0
  Br  Br11  1  0.55859824  0.72240907  0.93858098  1.0
