# generated using pymatgen
data_YAgS2
_symmetry_space_group_name_H-M   'P 1'
_cell_length_a   4.07153919
_cell_length_b   6.71505514
_cell_length_c   7.04581808
_cell_angle_alpha   90.56521255
_cell_angle_beta   90.00000000
_cell_angle_gamma   89.99999991
_symmetry_Int_Tables_number   1
_chemical_formula_structural   YAgS2
_chemical_formula_sum   'Y2 Ag2 S4'
_cell_volume   192.62759230
_cell_formula_units_Z   2
loop_
 _symmetry_equiv_pos_site_id
 _symmetry_equiv_pos_as_xyz
  1  'x, y, z'
loop_
 _atom_site_type_symbol
 _atom_site_label
 _atom_site_symmetry_multiplicity
 _atom_site_fract_x
 _atom_site_fract_y
 _atom_site_fract_z
 _atom_site_occupancy
  Y  Y0  1  0.00000000  0.00000000  0.00000000  1.0
  Y  Y1  1  0.50000000  0.00000000  0.50000000  1.0
  Ag  Ag2  1  0.50000000  0.59107765  0.80484695  1.0
  Ag  Ag3  1  0.50000000  0.40892235  0.19515305  1.0
  S  S4  1  0.00000000  0.22110174  0.33705120  1.0
  S  S5  1  0.50000000  0.21731115  0.83513751  1.0
  S  S6  1  0.50000000  0.78268885  0.16486249  1.0
  S  S7  1  0.00000000  0.77889826  0.66294880  1.0
