# generated using pymatgen
data_YAs2Au
_symmetry_space_group_name_H-M   'P 1'
_cell_length_a   4.92611783
_cell_length_b   4.92611856
_cell_length_c   4.92611613
_cell_angle_alpha   60.00000065
_cell_angle_beta   60.00003630
_cell_angle_gamma   60.00001625
_symmetry_Int_Tables_number   1
_chemical_formula_structural   YAs2Au
_chemical_formula_sum   'Y1 As2 Au1'
_cell_volume   84.52778299
_cell_formula_units_Z   1
loop_
 _symmetry_equiv_pos_site_id
 _symmetry_equiv_pos_as_xyz
  1  'x, y, z'
loop_
 _atom_site_type_symbol
 _atom_site_label
 _atom_site_symmetry_multiplicity
 _atom_site_fract_x
 _atom_site_fract_y
 _atom_site_fract_z
 _atom_site_occupancy
  Y  Y0  1  0.00000005  0.00000003  0.99999997  1.0
  As  As1  1  0.74999992  0.74999986  0.75000011  1.0
  As  As2  1  0.25000005  0.25000017  0.24999988  1.0
  Au  Au3  1  0.49999998  0.49999995  0.50000004  1.0
