# generated using pymatgen
data_YAsS4
_symmetry_space_group_name_H-M   'P 1'
_cell_length_a   5.60001260
_cell_length_b   6.85282162
_cell_length_c   6.85687663
_cell_angle_alpha   89.99952424
_cell_angle_beta   89.99949825
_cell_angle_gamma   90.01137511
_symmetry_Int_Tables_number   1
_chemical_formula_structural   YAsS4
_chemical_formula_sum   'Y2 As2 S8'
_cell_volume   263.13872038
_cell_formula_units_Z   2
loop_
 _symmetry_equiv_pos_site_id
 _symmetry_equiv_pos_as_xyz
  1  'x, y, z'
loop_
 _atom_site_type_symbol
 _atom_site_label
 _atom_site_symmetry_multiplicity
 _atom_site_fract_x
 _atom_site_fract_y
 _atom_site_fract_z
 _atom_site_occupancy
  Y  Y0  1  0.49999989  0.74999977  0.24957128  1.0
  Y  Y1  1  0.50000011  0.25000023  0.75042872  1.0
  As  As2  1  0.99999886  0.74999895  0.74957196  1.0
  As  As3  1  0.00000114  0.25000105  0.25042804  1.0
  S  S4  1  0.74203752  0.93523290  0.93494015  1.0
  S  S5  1  0.25796248  0.06476710  0.06505985  1.0
  S  S6  1  0.25796427  0.56476689  0.93494174  1.0
  S  S7  1  0.74203573  0.43523311  0.06505826  1.0
  S  S8  1  0.74104791  0.56492235  0.56497405  1.0
  S  S9  1  0.25895209  0.43507765  0.43502595  1.0
  S  S10  1  0.25895463  0.93508015  0.56497321  1.0
  S  S11  1  0.74104537  0.06491985  0.43502679  1.0
