# generated using pymatgen
data_YbCoAs2
_symmetry_space_group_name_H-M   'P 1'
_cell_length_a   4.66933999
_cell_length_b   4.66934078
_cell_length_c   4.66934204
_cell_angle_alpha   59.99997326
_cell_angle_beta   59.99997221
_cell_angle_gamma   60.00002792
_symmetry_Int_Tables_number   1
_chemical_formula_structural   YbCoAs2
_chemical_formula_sum   'Yb1 Co1 As2'
_cell_volume   71.98660159
_cell_formula_units_Z   1
loop_
 _symmetry_equiv_pos_site_id
 _symmetry_equiv_pos_as_xyz
  1  'x, y, z'
loop_
 _atom_site_type_symbol
 _atom_site_label
 _atom_site_symmetry_multiplicity
 _atom_site_fract_x
 _atom_site_fract_y
 _atom_site_fract_z
 _atom_site_occupancy
  Yb  Yb0  1  0.49999999  0.50000001  0.50000000  1.0
  Co  Co1  1  0.00000000  0.00000000  0.99999999  1.0
  As  As2  1  0.25000002  0.25000007  0.24999998  1.0
  As  As3  1  0.74999999  0.74999992  0.75000003  1.0
