# generated using pymatgen
data_YbDyN2
_symmetry_space_group_name_H-M   'P 1'
_cell_length_a   8.54964501
_cell_length_b   8.54913832
_cell_length_c   6.07333757
_cell_angle_alpha   61.68895459
_cell_angle_beta   118.31323706
_cell_angle_gamma   70.84905295
_symmetry_Int_Tables_number   1
_chemical_formula_structural   YbDyN2
_chemical_formula_sum   'Yb4 Dy4 N8'
_cell_volume   241.07390583
_cell_formula_units_Z   4
loop_
 _symmetry_equiv_pos_site_id
 _symmetry_equiv_pos_as_xyz
  1  'x, y, z'
loop_
 _atom_site_type_symbol
 _atom_site_label
 _atom_site_symmetry_multiplicity
 _atom_site_fract_x
 _atom_site_fract_y
 _atom_site_fract_z
 _atom_site_occupancy
  Yb  Yb0  1  0.68904826  0.68905780  0.74999576  1.0
  Yb  Yb1  1  0.93593077  0.93593765  0.74999503  1.0
  Yb  Yb2  1  0.06407137  0.06406203  0.25000404  1.0
  Yb  Yb3  1  0.31094124  0.31095086  0.24999735  1.0
  Dy  Dy4  1  0.18632229  0.18631260  0.75000444  1.0
  Dy  Dy5  1  0.43887038  0.43885898  0.75000594  1.0
  Dy  Dy6  1  0.81368102  0.81368367  0.24999832  1.0
  Dy  Dy7  1  0.56113178  0.56113926  0.24999599  1.0
  N  N8  1  0.19437166  0.68057707  0.75012557  1.0
  N  N9  1  0.44211618  0.93279196  0.77277020  1.0
  N  N10  1  0.31942237  0.80562742  0.25012700  1.0
  N  N11  1  0.06720804  0.55788402  0.27277016  1.0
  N  N12  1  0.93279235  0.44211510  0.72722954  1.0
  N  N13  1  0.68057615  0.19437026  0.74987451  1.0
  N  N14  1  0.55788464  0.06720662  0.22722981  1.0
  N  N15  1  0.80563151  0.31942471  0.24987632  1.0
