# generated using pymatgen
data_YbI2F
_symmetry_space_group_name_H-M   'P 1'
_cell_length_a   7.26866942
_cell_length_b   7.26899086
_cell_length_c   8.28404158
_cell_angle_alpha   54.20107381
_cell_angle_beta   54.19894669
_cell_angle_gamma   68.15091247
_symmetry_Int_Tables_number   1
_chemical_formula_structural   YbI2F
_chemical_formula_sum   'Yb2 I4 F2'
_cell_volume   287.62706604
_cell_formula_units_Z   2
loop_
 _symmetry_equiv_pos_site_id
 _symmetry_equiv_pos_as_xyz
  1  'x, y, z'
loop_
 _atom_site_type_symbol
 _atom_site_label
 _atom_site_symmetry_multiplicity
 _atom_site_fract_x
 _atom_site_fract_y
 _atom_site_fract_z
 _atom_site_occupancy
  Yb  Yb0  1  0.50000002  0.99999999  0.49999998  1.0
  Yb  Yb1  1  0.00000000  0.49999999  0.00000002  1.0
  I  I2  1  0.31992815  0.08848230  0.18490643  1.0
  I  I3  1  0.91152236  0.68006712  0.31509326  1.0
  I  I4  1  0.08847767  0.31993281  0.68490680  1.0
  I  I5  1  0.68007191  0.91151769  0.81509349  1.0
  F  F6  1  0.27647382  0.72352981  0.74999822  1.0
  F  F7  1  0.72352607  0.27647028  0.25000179  1.0
