# generated using pymatgen
data_YbMgBr4
_symmetry_space_group_name_H-M   'P 1'
_cell_length_a   6.48666139
_cell_length_b   7.03148607
_cell_length_c   7.88465072
_cell_angle_alpha   90.00000062
_cell_angle_beta   90.00000146
_cell_angle_gamma   88.54767944
_symmetry_Int_Tables_number   1
_chemical_formula_structural   YbMgBr4
_chemical_formula_sum   'Yb2 Mg2 Br8'
_cell_volume   359.51024737
_cell_formula_units_Z   2
loop_
 _symmetry_equiv_pos_site_id
 _symmetry_equiv_pos_as_xyz
  1  'x, y, z'
loop_
 _atom_site_type_symbol
 _atom_site_label
 _atom_site_symmetry_multiplicity
 _atom_site_fract_x
 _atom_site_fract_y
 _atom_site_fract_z
 _atom_site_occupancy
  Yb  Yb0  1  0.50000001  0.74999999  0.34806511  1.0
  Yb  Yb1  1  0.49999998  0.25000000  0.65193487  1.0
  Mg  Mg2  1  0.99999999  0.75000002  0.86316692  1.0
  Mg  Mg3  1  0.00000000  0.25000000  0.13683307  1.0
  Br  Br4  1  0.77039415  0.43402745  0.89324682  1.0
  Br  Br5  1  0.22960585  0.56597253  0.10675316  1.0
  Br  Br6  1  0.22960588  0.06597253  0.89324683  1.0
  Br  Br7  1  0.77039414  0.93402747  0.10675318  1.0
  Br  Br8  1  0.75066692  0.90624760  0.61903298  1.0
  Br  Br9  1  0.24933304  0.09375238  0.38096703  1.0
  Br  Br10  1  0.24933309  0.59375242  0.61903295  1.0
  Br  Br11  1  0.75066695  0.40624760  0.38096707  1.0
