# generated using pymatgen
data_YbPdS2
_symmetry_space_group_name_H-M   'P 1'
_cell_length_a   3.71176453
_cell_length_b   10.88131623
_cell_length_c   6.73809604
_cell_angle_alpha   143.90347646
_cell_angle_beta   90.00000125
_cell_angle_gamma   89.99999847
_symmetry_Int_Tables_number   1
_chemical_formula_structural   YbPdS2
_chemical_formula_sum   'Yb2 Pd2 S4'
_cell_volume   160.33301539
_cell_formula_units_Z   2
loop_
 _symmetry_equiv_pos_site_id
 _symmetry_equiv_pos_as_xyz
  1  'x, y, z'
loop_
 _atom_site_type_symbol
 _atom_site_label
 _atom_site_symmetry_multiplicity
 _atom_site_fract_x
 _atom_site_fract_y
 _atom_site_fract_z
 _atom_site_occupancy
  Yb  Yb0  1  0.99999999  0.00000001  0.50000002  1.0
  Yb  Yb1  1  0.99999999  0.50000000  0.50000000  1.0
  Pd  Pd2  1  0.50000001  0.50000000  0.99999999  1.0
  Pd  Pd3  1  0.00000000  0.99999999  0.99999999  1.0
  S  S4  1  0.50000000  0.17335616  0.99992806  1.0
  S  S5  1  0.00000001  0.31137679  0.62246917  1.0
  S  S6  1  0.00000001  0.68862321  0.37753082  1.0
  S  S7  1  0.49999999  0.82664384  0.00007196  1.0
