# generated using pymatgen
data_YBr2Cl
_symmetry_space_group_name_H-M   'P 1'
_cell_length_a   5.25178453
_cell_length_b   7.70575218
_cell_length_c   7.67739347
_cell_angle_alpha   89.68151018
_cell_angle_beta   89.98305087
_cell_angle_gamma   90.02259810
_symmetry_Int_Tables_number   1
_chemical_formula_structural   YBr2Cl
_chemical_formula_sum   'Y2 Br4 Cl2'
_cell_volume   310.69121510
_cell_formula_units_Z   2
loop_
 _symmetry_equiv_pos_site_id
 _symmetry_equiv_pos_as_xyz
  1  'x, y, z'
loop_
 _atom_site_type_symbol
 _atom_site_label
 _atom_site_symmetry_multiplicity
 _atom_site_fract_x
 _atom_site_fract_y
 _atom_site_fract_z
 _atom_site_occupancy
  Y  Y0  1  0.99997621  0.99999564  0.99999880  1.0
  Y  Y1  1  0.50000011  0.00000258  0.49999850  1.0
  Br  Br2  1  0.00012446  0.11629625  0.34049842  1.0
  Br  Br3  1  0.49993519  0.21462622  0.79599091  1.0
  Br  Br4  1  0.50007378  0.78537331  0.20401080  1.0
  Br  Br5  1  0.99988203  0.88370282  0.65949784  1.0
  Cl  Cl6  1  0.49978407  0.75398509  0.78777304  1.0
  Cl  Cl7  1  0.50022415  0.24601809  0.21223169  1.0
