# generated using pymatgen
data_YbTeCl
_symmetry_space_group_name_H-M   'P 1'
_cell_length_a   5.28951457
_cell_length_b   5.28955922
_cell_length_c   5.28954679
_cell_angle_alpha   60.00035297
_cell_angle_beta   60.00012458
_cell_angle_gamma   60.00027146
_symmetry_Int_Tables_number   1
_chemical_formula_structural   YbTeCl
_chemical_formula_sum   'Yb1 Te1 Cl1'
_cell_volume   104.65048011
_cell_formula_units_Z   1
loop_
 _symmetry_equiv_pos_site_id
 _symmetry_equiv_pos_as_xyz
  1  'x, y, z'
loop_
 _atom_site_type_symbol
 _atom_site_label
 _atom_site_symmetry_multiplicity
 _atom_site_fract_x
 _atom_site_fract_y
 _atom_site_fract_z
 _atom_site_occupancy
  Yb  Yb0  1  0.99999982  0.00000012  0.00000010  1.0
  Te  Te1  1  0.25000034  0.24999972  0.24999985  1.0
  Cl  Cl2  1  0.49999984  0.50000016  0.50000005  1.0
