# generated using pymatgen
data_YbTe4As
_symmetry_space_group_name_H-M   'P 1'
_cell_length_a   6.16280551
_cell_length_b   8.18205221
_cell_length_c   7.98452076
_cell_angle_alpha   90.00019900
_cell_angle_beta   90.00406290
_cell_angle_gamma   84.33336851
_symmetry_Int_Tables_number   1
_chemical_formula_structural   YbTe4As
_chemical_formula_sum   'Yb2 Te8 As2'
_cell_volume   400.64715972
_cell_formula_units_Z   2
loop_
 _symmetry_equiv_pos_site_id
 _symmetry_equiv_pos_as_xyz
  1  'x, y, z'
loop_
 _atom_site_type_symbol
 _atom_site_label
 _atom_site_symmetry_multiplicity
 _atom_site_fract_x
 _atom_site_fract_y
 _atom_site_fract_z
 _atom_site_occupancy
  Yb  Yb0  1  0.49999897  0.74999611  0.24310044  1.0
  Yb  Yb1  1  0.50000104  0.25000389  0.75689955  1.0
  Te  Te2  1  0.77407037  0.94391889  0.95002810  1.0
  Te  Te3  1  0.22592964  0.05608111  0.04997190  1.0
  Te  Te4  1  0.22593057  0.55607615  0.95002672  1.0
  Te  Te5  1  0.77406943  0.44392385  0.04997329  1.0
  Te  Te6  1  0.72553389  0.53443871  0.54749087  1.0
  Te  Te7  1  0.27446608  0.46556130  0.45250914  1.0
  Te  Te8  1  0.27447757  0.96555766  0.54748707  1.0
  Te  Te9  1  0.72552243  0.03444234  0.45251293  1.0
  As  As10  1  0.99999725  0.75000288  0.71375181  1.0
  As  As11  1  0.00000276  0.24999711  0.28624818  1.0
