# generated using pymatgen
data_YbTiSe2
_symmetry_space_group_name_H-M   'P 1'
_cell_length_a   3.85982245
_cell_length_b   3.85979341
_cell_length_c   6.81869733
_cell_angle_alpha   89.99952619
_cell_angle_beta   90.00002503
_cell_angle_gamma   120.00026044
_symmetry_Int_Tables_number   1
_chemical_formula_structural   YbTiSe2
_chemical_formula_sum   'Yb1 Ti1 Se2'
_cell_volume   87.97561132
_cell_formula_units_Z   1
loop_
 _symmetry_equiv_pos_site_id
 _symmetry_equiv_pos_as_xyz
  1  'x, y, z'
loop_
 _atom_site_type_symbol
 _atom_site_label
 _atom_site_symmetry_multiplicity
 _atom_site_fract_x
 _atom_site_fract_y
 _atom_site_fract_z
 _atom_site_occupancy
  Yb  Yb0  1  0.99999996  0.99999994  0.50000000  1.0
  Ti  Ti1  1  0.00000001  0.99999999  0.00000000  1.0
  Se  Se2  1  0.33333333  0.66666667  0.77534262  1.0
  Se  Se3  1  0.66666667  0.33333333  0.22465738  1.0
