# generated using pymatgen
data_YbTmS2
_symmetry_space_group_name_H-M   'P 1'
_cell_length_a   3.84240860
_cell_length_b   3.84235494
_cell_length_c   6.84629209
_cell_angle_alpha   89.99999422
_cell_angle_beta   90.00000671
_cell_angle_gamma   120.00045636
_symmetry_Int_Tables_number   1
_chemical_formula_structural   YbTmS2
_chemical_formula_sum   'Yb1 Tm1 S2'
_cell_volume   87.53567495
_cell_formula_units_Z   1
loop_
 _symmetry_equiv_pos_site_id
 _symmetry_equiv_pos_as_xyz
  1  'x, y, z'
loop_
 _atom_site_type_symbol
 _atom_site_label
 _atom_site_symmetry_multiplicity
 _atom_site_fract_x
 _atom_site_fract_y
 _atom_site_fract_z
 _atom_site_occupancy
  Yb  Yb0  1  0.00000002  0.00000000  0.50000000  1.0
  Tm  Tm1  1  0.00000003  0.00000000  0.00000001  1.0
  S  S2  1  0.66666667  0.33333333  0.75753610  1.0
  S  S3  1  0.33333333  0.66666667  0.24246388  1.0
