# generated using pymatgen
data_YHI4
_symmetry_space_group_name_H-M   'P 1'
_cell_length_a   7.50450878
_cell_length_b   6.69212941
_cell_length_c   7.50392472
_cell_angle_alpha   89.87470227
_cell_angle_beta   90.01072614
_cell_angle_gamma   90.01468248
_symmetry_Int_Tables_number   1
_chemical_formula_structural   YHI4
_chemical_formula_sum   'Y2 H2 I8'
_cell_volume   376.85476322
_cell_formula_units_Z   2
loop_
 _symmetry_equiv_pos_site_id
 _symmetry_equiv_pos_as_xyz
  1  'x, y, z'
loop_
 _atom_site_type_symbol
 _atom_site_label
 _atom_site_symmetry_multiplicity
 _atom_site_fract_x
 _atom_site_fract_y
 _atom_site_fract_z
 _atom_site_occupancy
  Y  Y0  1  0.74991979  0.50000210  0.25007979  1.0
  Y  Y1  1  0.25008021  0.49999790  0.74992022  1.0
  H  H2  1  0.75039435  0.00024095  0.75021531  1.0
  H  H3  1  0.24960564  0.99975915  0.24978466  1.0
  I  I4  1  0.42420396  0.25067208  0.07633239  1.0
  I  I5  1  0.42429727  0.74929255  0.42367465  1.0
  I  I6  1  0.92453909  0.25074678  0.92519596  1.0
  I  I7  1  0.92464614  0.74914696  0.57478216  1.0
  I  I8  1  0.07546091  0.74925321  0.07480404  1.0
  I  I9  1  0.07535387  0.25085303  0.42521784  1.0
  I  I10  1  0.57570274  0.25070742  0.57632537  1.0
  I  I11  1  0.57579603  0.74932788  0.92366763  1.0
