# generated using pymatgen
data_YI2F
_symmetry_space_group_name_H-M   'P 1'
_cell_length_a   3.85362465
_cell_length_b   7.65135592
_cell_length_c   9.66377895
_cell_angle_alpha   90.79957342
_cell_angle_beta   90.03881246
_cell_angle_gamma   89.98187056
_symmetry_Int_Tables_number   1
_chemical_formula_structural   YI2F
_chemical_formula_sum   'Y2 I4 F2'
_cell_volume   284.91308348
_cell_formula_units_Z   2
loop_
 _symmetry_equiv_pos_site_id
 _symmetry_equiv_pos_as_xyz
  1  'x, y, z'
loop_
 _atom_site_type_symbol
 _atom_site_label
 _atom_site_symmetry_multiplicity
 _atom_site_fract_x
 _atom_site_fract_y
 _atom_site_fract_z
 _atom_site_occupancy
  Y  Y0  1  0.00000246  0.00000042  0.99999924  1.0
  Y  Y1  1  0.49999997  0.99999953  0.49999982  1.0
  I  I2  1  0.99979761  0.24770109  0.36480872  1.0
  I  I3  1  0.50032853  0.23543628  0.75729219  1.0
  I  I4  1  0.49966529  0.76456326  0.24270816  1.0
  I  I5  1  0.00020221  0.75229934  0.63519179  1.0
  F  F6  1  0.50007753  0.86164174  0.92715292  1.0
  F  F7  1  0.49992640  0.13835834  0.07284717  1.0
