# generated using pymatgen
data_Zn2SO
_symmetry_space_group_name_H-M   'P 1'
_cell_length_a   6.62065544
_cell_length_b   6.62064017
_cell_length_c   8.27506010
_cell_angle_alpha   79.28829976
_cell_angle_beta   79.28803144
_cell_angle_gamma   48.63785135
_symmetry_Int_Tables_number   1
_chemical_formula_structural   Zn2SO
_chemical_formula_sum   'Zn8 S4 O4'
_cell_volume   266.51594226
_cell_formula_units_Z   4
loop_
 _symmetry_equiv_pos_site_id
 _symmetry_equiv_pos_as_xyz
  1  'x, y, z'
loop_
 _atom_site_type_symbol
 _atom_site_label
 _atom_site_symmetry_multiplicity
 _atom_site_fract_x
 _atom_site_fract_y
 _atom_site_fract_z
 _atom_site_occupancy
  Zn  Zn0  1  0.50000007  0.99999991  0.49999945  1.0
  Zn  Zn1  1  0.00000006  0.50000001  0.00000033  1.0
  Zn  Zn2  1  0.88233166  0.11766861  0.25000020  1.0
  Zn  Zn3  1  0.11766821  0.88233209  0.74999934  1.0
  Zn  Zn4  1  0.32505789  0.73238459  0.09530652  1.0
  Zn  Zn5  1  0.26761574  0.67494156  0.40469346  1.0
  Zn  Zn6  1  0.67494201  0.26761579  0.90469337  1.0
  Zn  Zn7  1  0.73238447  0.32505794  0.59530675  1.0
  S  S8  1  0.35679267  0.05456789  0.92170736  1.0
  S  S9  1  0.94543462  0.64320303  0.57829068  1.0
  S  S10  1  0.64320736  0.94543260  0.07829300  1.0
  S  S11  1  0.05456554  0.35679649  0.42170847  1.0
  O  O12  1  0.73459845  0.41430058  0.07030216  1.0
  O  O13  1  0.58569923  0.26540200  0.42969720  1.0
  O  O14  1  0.26540191  0.58569883  0.92969811  1.0
  O  O15  1  0.41430010  0.73459807  0.57030262  1.0
