# generated using pymatgen
data_ZnGeO2
_symmetry_space_group_name_H-M   'P 1'
_cell_length_a   3.21106047
_cell_length_b   5.13976365
_cell_length_c   7.42328834
_cell_angle_alpha   80.71204188
_cell_angle_beta   89.37589826
_cell_angle_gamma   89.87073349
_symmetry_Int_Tables_number   1
_chemical_formula_structural   ZnGeO2
_chemical_formula_sum   'Zn2 Ge2 O4'
_cell_volume   120.90123602
_cell_formula_units_Z   2
loop_
 _symmetry_equiv_pos_site_id
 _symmetry_equiv_pos_as_xyz
  1  'x, y, z'
loop_
 _atom_site_type_symbol
 _atom_site_label
 _atom_site_symmetry_multiplicity
 _atom_site_fract_x
 _atom_site_fract_y
 _atom_site_fract_z
 _atom_site_occupancy
  Zn  Zn0  1  0.75492930  0.19866348  0.87878085  1.0
  Zn  Zn1  1  0.24518021  0.80141285  0.12118345  1.0
  Ge  Ge2  1  0.26108879  0.75629399  0.65881642  1.0
  Ge  Ge3  1  0.73904816  0.24368980  0.34120318  1.0
  O  O4  1  0.75749671  0.56547726  0.77563108  1.0
  O  O5  1  0.24218374  0.43444012  0.22440228  1.0
  O  O6  1  0.25605596  0.97942110  0.84380178  1.0
  O  O7  1  0.74401713  0.02060141  0.15618096  1.0
