# generated using pymatgen
data_ZnSb2Pd
_symmetry_space_group_name_H-M   'P 1'
_cell_length_a   4.44270401
_cell_length_b   4.44270398
_cell_length_c   5.28069610
_cell_angle_alpha   90.00009039
_cell_angle_beta   89.99990963
_cell_angle_gamma   120.00004491
_symmetry_Int_Tables_number   1
_chemical_formula_structural   ZnSb2Pd
_chemical_formula_sum   'Zn1 Sb2 Pd1'
_cell_volume   90.26437238
_cell_formula_units_Z   1
loop_
 _symmetry_equiv_pos_site_id
 _symmetry_equiv_pos_as_xyz
  1  'x, y, z'
loop_
 _atom_site_type_symbol
 _atom_site_label
 _atom_site_symmetry_multiplicity
 _atom_site_fract_x
 _atom_site_fract_y
 _atom_site_fract_z
 _atom_site_occupancy
  Zn  Zn0  1  0.99999999  0.99999999  0.00000000  1.0
  Sb  Sb1  1  0.33333333  0.66666667  0.27713801  1.0
  Sb  Sb2  1  0.66666667  0.33333333  0.72286199  1.0
  Pd  Pd3  1  0.00000000  0.00000001  0.50000000  1.0
