# generated using pymatgen
data_ZnWS2
_symmetry_space_group_name_H-M   'P 1'
_cell_length_a   3.17474926
_cell_length_b   3.17470604
_cell_length_c   21.25696574
_cell_angle_alpha   89.99921242
_cell_angle_beta   89.97430895
_cell_angle_gamma   60.00030315
_symmetry_Int_Tables_number   1
_chemical_formula_structural   ZnWS2
_chemical_formula_sum   'Zn2 W2 S4'
_cell_volume   185.54366179
_cell_formula_units_Z   2
loop_
 _symmetry_equiv_pos_site_id
 _symmetry_equiv_pos_as_xyz
  1  'x, y, z'
loop_
 _atom_site_type_symbol
 _atom_site_label
 _atom_site_symmetry_multiplicity
 _atom_site_fract_x
 _atom_site_fract_y
 _atom_site_fract_z
 _atom_site_occupancy
  Zn  Zn0  1  0.33319679  0.33339670  0.54949177  1.0
  Zn  Zn1  1  0.66679916  0.66666667  0.45050989  1.0
  W  W2  1  0.33359005  0.33320553  0.77348627  1.0
  W  W3  1  0.66644675  0.66679443  0.22651320  1.0
  S  S4  1  0.33339795  0.33333333  0.15171053  1.0
  S  S5  1  0.66666667  0.66666667  0.84828895  1.0
  S  S6  1  0.66720857  0.66639827  0.69845615  1.0
  S  S7  1  0.33280695  0.33360173  0.30154325  1.0
