# generated using pymatgen
data_ZrBeAs2
_symmetry_space_group_name_H-M   'P 1'
_cell_length_a   4.65635495
_cell_length_b   4.65634386
_cell_length_c   4.65633980
_cell_angle_alpha   59.99762722
_cell_angle_beta   59.99760120
_cell_angle_gamma   59.99751688
_symmetry_Int_Tables_number   1
_chemical_formula_structural   ZrBeAs2
_chemical_formula_sum   'Zr1 Be1 As2'
_cell_volume   71.38335880
_cell_formula_units_Z   1
loop_
 _symmetry_equiv_pos_site_id
 _symmetry_equiv_pos_as_xyz
  1  'x, y, z'
loop_
 _atom_site_type_symbol
 _atom_site_label
 _atom_site_symmetry_multiplicity
 _atom_site_fract_x
 _atom_site_fract_y
 _atom_site_fract_z
 _atom_site_occupancy
  Zr  Zr0  1  0.00000003  0.00000006  0.99999988  1.0
  Be  Be1  1  0.49999992  0.50000004  0.50000007  1.0
  As  As2  1  0.24999817  0.24999797  0.24999786  1.0
  As  As3  1  0.75000188  0.75000193  0.75000220  1.0
