# generated using pymatgen
data_ZrPtS4
_symmetry_space_group_name_H-M   'P 1'
_cell_length_a   6.37949104
_cell_length_b   5.87272576
_cell_length_c   6.39968825
_cell_angle_alpha   79.19095118
_cell_angle_beta   90.00000000
_cell_angle_gamma   89.99999973
_symmetry_Int_Tables_number   1
_chemical_formula_structural   ZrPtS4
_chemical_formula_sum   'Zr2 Pt2 S8'
_cell_volume   235.51034519
_cell_formula_units_Z   2
loop_
 _symmetry_equiv_pos_site_id
 _symmetry_equiv_pos_as_xyz
  1  'x, y, z'
loop_
 _atom_site_type_symbol
 _atom_site_label
 _atom_site_symmetry_multiplicity
 _atom_site_fract_x
 _atom_site_fract_y
 _atom_site_fract_z
 _atom_site_occupancy
  Zr  Zr0  1  0.71758902  0.50000000  0.25000000  1.0
  Zr  Zr1  1  0.28241100  0.50000000  0.75000000  1.0
  Pt  Pt2  1  0.84241099  0.00000000  0.75000000  1.0
  Pt  Pt3  1  0.15758899  0.00000000  0.25000000  1.0
  S  S4  1  0.57113157  0.24695309  0.57848818  1.0
  S  S5  1  0.57113156  0.75304690  0.92151181  1.0
  S  S6  1  0.42886844  0.75304692  0.42151181  1.0
  S  S7  1  0.42886844  0.24695308  0.07848819  1.0
  S  S8  1  0.93292421  0.25555663  0.99403835  1.0
  S  S9  1  0.93292421  0.74444337  0.50596165  1.0
  S  S10  1  0.06707579  0.74444337  0.00596165  1.0
  S  S11  1  0.06707579  0.25555663  0.49403836  1.0
