# generated using pymatgen
data_ZrPtS4
_symmetry_space_group_name_H-M   'P 1'
_cell_length_a   5.72510476
_cell_length_b   6.95045660
_cell_length_c   6.80445011
_cell_angle_alpha   69.69294336
_cell_angle_beta   89.99999599
_cell_angle_gamma   89.99999610
_symmetry_Int_Tables_number   1
_chemical_formula_structural   ZrPtS4
_chemical_formula_sum   'Zr2 Pt2 S8'
_cell_volume   253.93433710
_cell_formula_units_Z   2
loop_
 _symmetry_equiv_pos_site_id
 _symmetry_equiv_pos_as_xyz
  1  'x, y, z'
loop_
 _atom_site_type_symbol
 _atom_site_label
 _atom_site_symmetry_multiplicity
 _atom_site_fract_x
 _atom_site_fract_y
 _atom_site_fract_z
 _atom_site_occupancy
  Zr  Zr0  1  0.50000020  0.49999974  0.99999990  1.0
  Zr  Zr1  1  0.99999984  0.49999999  0.49999988  1.0
  Pt  Pt2  1  0.00000005  0.99999990  0.00000006  1.0
  Pt  Pt3  1  0.49999987  0.00000001  0.50000001  1.0
  S  S4  1  0.71108059  0.14835339  0.16917604  1.0
  S  S5  1  0.78891922  0.14835355  0.66917614  1.0
  S  S6  1  0.34767315  0.34225580  0.37453343  1.0
  S  S7  1  0.15232670  0.34225567  0.87453347  1.0
  S  S8  1  0.84767322  0.65774437  0.12546646  1.0
  S  S9  1  0.65232691  0.65774452  0.62546655  1.0
  S  S10  1  0.21108069  0.85164653  0.33082393  1.0
  S  S11  1  0.28891955  0.85164653  0.83082413  1.0
