# generated using pymatgen
data_Ac2ZnIn
_symmetry_space_group_name_H-M   'P 1'
_cell_length_a   5.82999709
_cell_length_b   4.19398709
_cell_length_c   7.79624287
_cell_angle_alpha   50.99779283
_cell_angle_beta   65.55134731
_cell_angle_gamma   77.21813896
_symmetry_Int_Tables_number   1
_chemical_formula_structural   Ac2ZnIn
_chemical_formula_sum   'Ac2 Zn1 In1'
_cell_volume   134.64833278
_cell_formula_units_Z   1
loop_
 _symmetry_equiv_pos_site_id
 _symmetry_equiv_pos_as_xyz
  1  'x, y, z'
loop_
 _atom_site_type_symbol
 _atom_site_label
 _atom_site_symmetry_multiplicity
 _atom_site_fract_x
 _atom_site_fract_y
 _atom_site_fract_z
 _atom_site_occupancy
  Ac  Ac0  1  0.85557580  0.59832853  0.52277779  1
  Ac  Ac1  1  0.49421624  0.53050297  0.11139522  1
  Zn  Zn2  1  -0.03626193  -0.03571979  0.00547999  1
  In  In3  1  0.23465989  0.71233828  0.72716700  1
