# generated using pymatgen
data_AcInHg2
_symmetry_space_group_name_H-M   'P 1'
_cell_length_a   5.38150812
_cell_length_b   5.50259109
_cell_length_c   5.31237075
_cell_angle_alpha   63.96029551
_cell_angle_beta   59.22373420
_cell_angle_gamma   62.03692539
_symmetry_Int_Tables_number   1
_chemical_formula_structural   AcInHg2
_chemical_formula_sum   'Ac1 In1 Hg2'
_cell_volume   115.19734439
_cell_formula_units_Z   1
loop_
 _symmetry_equiv_pos_site_id
 _symmetry_equiv_pos_as_xyz
  1  'x, y, z'
loop_
 _atom_site_type_symbol
 _atom_site_label
 _atom_site_symmetry_multiplicity
 _atom_site_fract_x
 _atom_site_fract_y
 _atom_site_fract_z
 _atom_site_occupancy
  Ac  Ac0  1  0.48966343  0.25643091  0.06048547  1
  In  In1  1  0.25133621  0.97350625  0.81322249  1
  Hg  Hg2  1  -0.26820817  0.53469489  0.30216023  1
  Hg  Hg3  1  -0.02128148  -0.20351205  0.53880181  1
