# generated using pymatgen
data_Ag2H3
_symmetry_space_group_name_H-M   'P 1'
_cell_length_a   7.49604805
_cell_length_b   3.18635194
_cell_length_c   4.95483273
_cell_angle_alpha   130.13782771
_cell_angle_beta   121.66458059
_cell_angle_gamma   94.81465782
_symmetry_Int_Tables_number   1
_chemical_formula_structural   Ag2H3
_chemical_formula_sum   'Ag2 H3'
_cell_volume   58.58286940
_cell_formula_units_Z   1
loop_
 _symmetry_equiv_pos_site_id
 _symmetry_equiv_pos_as_xyz
  1  'x, y, z'
loop_
 _atom_site_type_symbol
 _atom_site_label
 _atom_site_symmetry_multiplicity
 _atom_site_fract_x
 _atom_site_fract_y
 _atom_site_fract_z
 _atom_site_occupancy
  Ag  Ag0  1  0.73156832  0.25253487  0.55388939  1
  Ag  Ag1  1  0.29907638  0.90737458  0.40534914  1
  H  H2  1  0.07607800  0.04349983  0.07512784  1
  H  H3  1  0.36254802  0.50500533  0.00048349  1
  H  H4  1  0.69250929  0.66661540  -0.00421985  1
