# generated using pymatgen
data_Al3Ni2H
_symmetry_space_group_name_H-M   'P 1'
_cell_length_a   4.71876637
_cell_length_b   4.79896644
_cell_length_c   3.94014941
_cell_angle_alpha   65.45693909
_cell_angle_beta   113.32269202
_cell_angle_gamma   116.40109515
_symmetry_Int_Tables_number   1
_chemical_formula_structural   Al3Ni2H
_chemical_formula_sum   'Al3 Ni2 H1'
_cell_volume   70.21368813
_cell_formula_units_Z   1
loop_
 _symmetry_equiv_pos_site_id
 _symmetry_equiv_pos_as_xyz
  1  'x, y, z'
loop_
 _atom_site_type_symbol
 _atom_site_label
 _atom_site_symmetry_multiplicity
 _atom_site_fract_x
 _atom_site_fract_y
 _atom_site_fract_z
 _atom_site_occupancy
  Al  Al0  1  0.61382572  -0.13359383  0.66743046  1
  Al  Al1  1  0.22370287  0.25231035  0.28049769  1
  Al  Al2  1  -0.10182119  0.57996926  0.45279843  1
  Ni  Ni3  1  0.66995249  0.29581191  -0.01139903  1
  Ni  Ni4  1  0.18425531  0.80665076  -0.02548779  1
  H  H5  1  0.27566480  0.19835155  -0.16434976  1
