# generated using pymatgen
data_Al8Mo3
_symmetry_space_group_name_H-M   'P 1'
_cell_length_a   3.77666907
_cell_length_b   4.91964458
_cell_length_c   10.40348011
_cell_angle_alpha   86.81402970
_cell_angle_beta   100.45995688
_cell_angle_gamma   112.56836087
_symmetry_Int_Tables_number   1
_chemical_formula_structural   Al8Mo3
_chemical_formula_sum   'Al8 Mo3'
_cell_volume   175.50583916
_cell_formula_units_Z   1
loop_
 _symmetry_equiv_pos_site_id
 _symmetry_equiv_pos_as_xyz
  1  'x, y, z'
loop_
 _atom_site_type_symbol
 _atom_site_label
 _atom_site_symmetry_multiplicity
 _atom_site_fract_x
 _atom_site_fract_y
 _atom_site_fract_z
 _atom_site_occupancy
  Al  Al0  1  0.33665013  0.53174689  0.93713472  1
  Al  Al1  1  0.84620070  0.37862619  0.10841361  1
  Al  Al2  1  0.60275008  0.80349657  0.19700085  1
  Al  Al3  1  0.57947686  0.10689199  0.84844730  1
  Al  Al4  1  -0.14358131  0.06117617  0.44786567  1
  Al  Al5  1  -0.17605778  0.68399177  0.76049120  1
  Al  Al6  1  0.32493881  0.84926751  0.59775989  1
  Al  Al7  1  0.35836002  0.22703486  0.28541497  1
  Mo  Mo8  1  0.09112751  -0.04481030  0.02271219  1
  Mo  Mo9  1  0.08562008  0.27285626  0.69459225  1
  Mo  Mo10  1  0.09693491  0.63804209  0.35097735  1
