# generated using pymatgen
data_AlCuTe2
_symmetry_space_group_name_H-M   'P 1'
_cell_length_a   6.90751547
_cell_length_b   4.32602410
_cell_length_c   7.63997361
_cell_angle_alpha   104.46132480
_cell_angle_beta   108.00663046
_cell_angle_gamma   88.00430190
_symmetry_Int_Tables_number   1
_chemical_formula_structural   AlCuTe2
_chemical_formula_sum   'Al2 Cu2 Te4'
_cell_volume   210.01471438
_cell_formula_units_Z   2
loop_
 _symmetry_equiv_pos_site_id
 _symmetry_equiv_pos_as_xyz
  1  'x, y, z'
loop_
 _atom_site_type_symbol
 _atom_site_label
 _atom_site_symmetry_multiplicity
 _atom_site_fract_x
 _atom_site_fract_y
 _atom_site_fract_z
 _atom_site_occupancy
  Al  Al0  1  0.74468264  0.31305073  0.35221939  1
  Al  Al1  1  0.46094379  0.57127206  -0.08827424  1
  Cu  Cu2  1  0.14557260  0.84823985  0.74275026  1
  Cu  Cu3  1  0.18300500  -0.27360298  0.06235236  1
  Te  Te4  1  0.34054415  0.29184738  0.22835150  1
  Te  Te5  1  -0.06865163  0.35730787  0.71422532  1
  Te  Te6  1  0.48268783  -0.01474587  0.70221079  1
  Te  Te7  1  0.83774562  0.73185096  0.17948463  1
