# generated using pymatgen
data_AlSiRu2
_symmetry_space_group_name_H-M   'P 1'
_cell_length_a   4.17642640
_cell_length_b   6.59751733
_cell_length_c   5.11564962
_cell_angle_alpha   39.31267495
_cell_angle_beta   35.34899699
_cell_angle_gamma   50.87215283
_symmetry_Int_Tables_number   1
_chemical_formula_structural   AlSiRu2
_chemical_formula_sum   'Al1 Si1 Ru2'
_cell_volume   51.66701451
_cell_formula_units_Z   1
loop_
 _symmetry_equiv_pos_site_id
 _symmetry_equiv_pos_as_xyz
  1  'x, y, z'
loop_
 _atom_site_type_symbol
 _atom_site_label
 _atom_site_symmetry_multiplicity
 _atom_site_fract_x
 _atom_site_fract_y
 _atom_site_fract_z
 _atom_site_occupancy
  Al  Al0  1  0.43259007  0.41510296  0.16960636  1
  Si  Si1  1  -0.06671975  -0.08539052  0.66930378  1
  Ru  Ru2  1  -0.06644286  -0.08454535  0.16850137  1
  Ru  Ru3  1  0.43338254  0.41518291  0.66893849  1
