# generated using pymatgen
data_Ba2NdTlCu2
_symmetry_space_group_name_H-M   'P 1'
_cell_length_a   4.04573810
_cell_length_b   5.11387589
_cell_length_c   10.48882980
_cell_angle_alpha   118.37212557
_cell_angle_beta   90.08265792
_cell_angle_gamma   90.36254532
_symmetry_Int_Tables_number   1
_chemical_formula_structural   Ba2NdTlCu2
_chemical_formula_sum   'Ba2 Nd1 Tl1 Cu2'
_cell_volume   190.93437222
_cell_formula_units_Z   1
loop_
 _symmetry_equiv_pos_site_id
 _symmetry_equiv_pos_as_xyz
  1  'x, y, z'
loop_
 _atom_site_type_symbol
 _atom_site_label
 _atom_site_symmetry_multiplicity
 _atom_site_fract_x
 _atom_site_fract_y
 _atom_site_fract_z
 _atom_site_occupancy
  Ba  Ba0  1  0.63535956  0.44218900  0.70986089  1
  Ba  Ba1  1  0.13889440  0.24919837  0.02543400  1
  Nd  Nd2  1  0.62822093  -0.37370348  0.40583315  1
  Tl  Tl3  1  -0.35944999  0.90714270  0.18662297  1
  Cu  Cu4  1  0.13160565  -0.12395444  0.62693020  1
  Cu  Cu5  1  0.13422945  0.10670785  0.42136879  1
