# generated using pymatgen
data_BaAg2SnSe4
_symmetry_space_group_name_H-M   'P 1'
_cell_length_a   6.79958820
_cell_length_b   6.73621986
_cell_length_c   9.19134190
_cell_angle_alpha   139.32848534
_cell_angle_beta   97.01607791
_cell_angle_gamma   103.10130618
_symmetry_Int_Tables_number   1
_chemical_formula_structural   BaAg2SnSe4
_chemical_formula_sum   'Ba1 Ag2 Sn1 Se4'
_cell_volume   236.82274076
_cell_formula_units_Z   1
loop_
 _symmetry_equiv_pos_site_id
 _symmetry_equiv_pos_as_xyz
  1  'x, y, z'
loop_
 _atom_site_type_symbol
 _atom_site_label
 _atom_site_symmetry_multiplicity
 _atom_site_fract_x
 _atom_site_fract_y
 _atom_site_fract_z
 _atom_site_occupancy
  Ba  Ba0  1  0.01552098  0.08814085  -0.00793054  1
  Ag  Ag1  1  0.24932761  0.08468928  0.41080191  1
  Ag  Ag2  1  0.55343136  -0.11674829  0.47463369  1
  Sn  Sn3  1  0.53973281  0.57953612  0.04426736  1
  Se  Se4  1  0.52748826  0.41071237  0.40754882  1
  Se  Se5  1  0.48557125  0.90564570  -0.01529313  1
  Se  Se6  1  0.18527912  -0.06079208  0.59863535  1
  Se  Se7  1  0.88376861  0.51547604  0.93977654  1
