# generated using pymatgen
data_BaCaSi
_symmetry_space_group_name_H-M   'P 1'
_cell_length_a   5.10073122
_cell_length_b   11.43682378
_cell_length_c   8.99251879
_cell_angle_alpha   89.65926398
_cell_angle_beta   55.33573175
_cell_angle_gamma   102.90137758
_symmetry_Int_Tables_number   1
_chemical_formula_structural   BaCaSi
_chemical_formula_sum   'Ba4 Ca4 Si4'
_cell_volume   414.75975618
_cell_formula_units_Z   4
loop_
 _symmetry_equiv_pos_site_id
 _symmetry_equiv_pos_as_xyz
  1  'x, y, z'
loop_
 _atom_site_type_symbol
 _atom_site_label
 _atom_site_symmetry_multiplicity
 _atom_site_fract_x
 _atom_site_fract_y
 _atom_site_fract_z
 _atom_site_occupancy
  Ba  Ba0  1  0.00568755  0.10641413  0.92850835  1
  Ba  Ba1  1  0.12384401  0.83286470  0.17302224  1
  Ba  Ba2  1  0.17837073  0.64553083  0.52518920  1
  Ba  Ba3  1  -0.29304561  0.38244030  0.36937740  1
  Ca  Ca4  1  0.63644500  0.35250191  0.91940015  1
  Ca  Ca5  1  0.28308802  0.60183160  -0.10380751  1
  Ca  Ca6  1  0.67124624  0.90555694  0.66436002  1
  Ca  Ca7  1  0.47960810  0.06621996  0.43792851  1
  Si  Si8  1  0.58403292  0.59451401  0.09085355  1
  Si  Si9  1  0.88034154  0.18265542  0.59591705  1
  Si  Si10  1  0.19704325  0.15369489  0.26500007  1
  Si  Si11  1  0.89812825  0.79609530  0.88181097  1
