# generated using pymatgen
data_BaCdSn
_symmetry_space_group_name_H-M   'P 1'
_cell_length_a   7.11914600
_cell_length_b   8.48472345
_cell_length_c   9.84882163
_cell_angle_alpha   30.10318081
_cell_angle_beta   45.47653687
_cell_angle_gamma   52.32133461
_symmetry_Int_Tables_number   1
_chemical_formula_structural   BaCdSn
_chemical_formula_sum   'Ba2 Cd2 Sn2'
_cell_volume   212.71732402
_cell_formula_units_Z   2
loop_
 _symmetry_equiv_pos_site_id
 _symmetry_equiv_pos_as_xyz
  1  'x, y, z'
loop_
 _atom_site_type_symbol
 _atom_site_label
 _atom_site_symmetry_multiplicity
 _atom_site_fract_x
 _atom_site_fract_y
 _atom_site_fract_z
 _atom_site_occupancy
  Ba  Ba0  1  0.51010458  0.21918485  0.02369674  1
  Ba  Ba1  1  0.51095427  0.21886786  0.52291401  1
  Cd  Cd2  1  0.00614206  0.55644548  0.27180910  1
  Cd  Cd3  1  0.00766104  0.55234395  0.77528493  1
  Sn  Sn4  1  0.01292856  0.88870778  -0.22999346  1
  Sn  Sn5  1  0.01569949  -0.11630992  0.27338868  1
