# generated using pymatgen
data_BaGaSi
_symmetry_space_group_name_H-M   'P 1'
_cell_length_a   4.24705379
_cell_length_b   4.24695154
_cell_length_c   5.81675748
_cell_angle_alpha   75.66436815
_cell_angle_beta   104.48593152
_cell_angle_gamma   119.52041215
_symmetry_Int_Tables_number   1
_chemical_formula_structural   BaGaSi
_chemical_formula_sum   'Ba1 Ga1 Si1'
_cell_volume   87.42626844
_cell_formula_units_Z   1
loop_
 _symmetry_equiv_pos_site_id
 _symmetry_equiv_pos_as_xyz
  1  'x, y, z'
loop_
 _atom_site_type_symbol
 _atom_site_label
 _atom_site_symmetry_multiplicity
 _atom_site_fract_x
 _atom_site_fract_y
 _atom_site_fract_z
 _atom_site_occupancy
  Ba  Ba0  1  0.17839945  0.68806297  -0.02447641  1
  Ga  Ga1  1  0.63095748  0.24159729  0.46952621  1
  Si  Si2  1  -0.05631693  -0.07124026  0.37990021  1
