# generated using pymatgen
data_BaGa4
_symmetry_space_group_name_H-M   'P 1'
_cell_length_a   4.63870123
_cell_length_b   5.08125600
_cell_length_c   8.26438657
_cell_angle_alpha   126.45261588
_cell_angle_beta   105.85228718
_cell_angle_gamma   90.76771410
_symmetry_Int_Tables_number   1
_chemical_formula_structural   BaGa4
_chemical_formula_sum   'Ba1 Ga4'
_cell_volume   146.78719568
_cell_formula_units_Z   1
loop_
 _symmetry_equiv_pos_site_id
 _symmetry_equiv_pos_as_xyz
  1  'x, y, z'
loop_
 _atom_site_type_symbol
 _atom_site_label
 _atom_site_symmetry_multiplicity
 _atom_site_fract_x
 _atom_site_fract_y
 _atom_site_fract_z
 _atom_site_occupancy
  Ba  Ba0  1  -0.00426121  -0.07413953  -0.03405449  1
  Ga  Ga1  1  0.59371211  0.72118325  0.17021748  1
  Ga  Ga2  1  0.80850619  0.06003131  0.58656288  1
  Ga  Ga3  1  0.18837453  0.78954406  0.35835075  1
  Ga  Ga4  1  0.40719837  0.17893091  0.78194338  1
