# generated using pymatgen
data_BaHgO2
_symmetry_space_group_name_H-M   'P 1'
_cell_length_a   4.03284988
_cell_length_b   9.73687206
_cell_length_c   7.02770965
_cell_angle_alpha   44.16102024
_cell_angle_beta   72.33071135
_cell_angle_gamma   36.73154216
_symmetry_Int_Tables_number   1
_chemical_formula_structural   BaHgO2
_chemical_formula_sum   'Ba1 Hg1 O2'
_cell_volume   87.23743587
_cell_formula_units_Z   1
loop_
 _symmetry_equiv_pos_site_id
 _symmetry_equiv_pos_as_xyz
  1  'x, y, z'
loop_
 _atom_site_type_symbol
 _atom_site_label
 _atom_site_symmetry_multiplicity
 _atom_site_fract_x
 _atom_site_fract_y
 _atom_site_fract_z
 _atom_site_occupancy
  Ba  Ba0  1  0.88198793  0.07756512  0.46346956  1
  Hg  Hg1  1  -0.11671710  0.07587286  -0.03563004  1
  O  O2  1  0.49677716  0.93276728  0.82375030  1
  O  O3  1  0.26855201  0.22050474  0.10413018  1
