# generated using pymatgen
data_BaNaDyW
_symmetry_space_group_name_H-M   'P 1'
_cell_length_a   4.95128361
_cell_length_b   8.67275888
_cell_length_c   8.67385526
_cell_angle_alpha   21.86078856
_cell_angle_beta   73.29137218
_cell_angle_gamma   73.27816017
_symmetry_Int_Tables_number   1
_chemical_formula_structural   BaNaDyW
_chemical_formula_sum   'Ba1 Na1 Dy1 W1'
_cell_volume   132.60517723
_cell_formula_units_Z   1
loop_
 _symmetry_equiv_pos_site_id
 _symmetry_equiv_pos_as_xyz
  1  'x, y, z'
loop_
 _atom_site_type_symbol
 _atom_site_label
 _atom_site_symmetry_multiplicity
 _atom_site_fract_x
 _atom_site_fract_y
 _atom_site_fract_z
 _atom_site_occupancy
  Ba  Ba0  1  0.72207817  0.82748367  0.77733330  1
  Na  Na1  1  0.38041676  0.16898842  0.11684375  1
  Dy  Dy2  1  0.04026553  0.00778570  -0.04282628  1
  W  W3  1  0.54458954  0.50273222  0.45270922  1
