# generated using pymatgen
data_BaPt
_symmetry_space_group_name_H-M   'P 1'
_cell_length_a   5.00660247
_cell_length_b   4.13600722
_cell_length_c   8.24941270
_cell_angle_alpha   74.52689274
_cell_angle_beta   89.96631500
_cell_angle_gamma   127.23622371
_symmetry_Int_Tables_number   1
_chemical_formula_structural   BaPt
_chemical_formula_sum   'Ba2 Pt2'
_cell_volume   128.11596504
_cell_formula_units_Z   2
loop_
 _symmetry_equiv_pos_site_id
 _symmetry_equiv_pos_as_xyz
  1  'x, y, z'
loop_
 _atom_site_type_symbol
 _atom_site_label
 _atom_site_symmetry_multiplicity
 _atom_site_fract_x
 _atom_site_fract_y
 _atom_site_fract_z
 _atom_site_occupancy
  Ba  Ba0  1  0.51998864  -0.01455667  0.74196936  1
  Ba  Ba1  1  0.52130066  0.98806967  0.24200014  1
  Pt  Pt2  1  0.01595487  -0.02257876  0.49025858  1
  Pt  Pt3  1  0.02607582  -0.00243424  -0.00567809  1
