# generated using pymatgen
data_BaZnIn3
_symmetry_space_group_name_H-M   'P 1'
_cell_length_a   4.25685531
_cell_length_b   7.61074193
_cell_length_c   6.93708282
_cell_angle_alpha   110.11164253
_cell_angle_beta   128.11962147
_cell_angle_gamma   56.29366436
_symmetry_Int_Tables_number   1
_chemical_formula_structural   BaZnIn3
_chemical_formula_sum   'Ba1 Zn1 In3'
_cell_volume   147.08943783
_cell_formula_units_Z   1
loop_
 _symmetry_equiv_pos_site_id
 _symmetry_equiv_pos_as_xyz
  1  'x, y, z'
loop_
 _atom_site_type_symbol
 _atom_site_label
 _atom_site_symmetry_multiplicity
 _atom_site_fract_x
 _atom_site_fract_y
 _atom_site_fract_z
 _atom_site_occupancy
  Ba  Ba0  1  -0.06762815  -0.07518358  -0.08630665  1
  Zn  Zn1  1  0.76677501  0.42757594  0.25082611  1
  In  In2  1  0.69212070  0.16369785  0.41624761  1
  In  In3  1  0.17816029  0.68897814  0.41928338  1
  In  In4  1  -0.08894785  0.42440165  -0.10723045  1
