# generated using pymatgen
data_BaZnSi
_symmetry_space_group_name_H-M   'P 1'
_cell_length_a   4.25075903
_cell_length_b   6.79183513
_cell_length_c   7.92467294
_cell_angle_alpha   54.55007542
_cell_angle_beta   93.42726504
_cell_angle_gamma   112.23797423
_symmetry_Int_Tables_number   1
_chemical_formula_structural   BaZnSi
_chemical_formula_sum   'Ba2 Zn2 Si2'
_cell_volume   168.59938019
_cell_formula_units_Z   2
loop_
 _symmetry_equiv_pos_site_id
 _symmetry_equiv_pos_as_xyz
  1  'x, y, z'
loop_
 _atom_site_type_symbol
 _atom_site_label
 _atom_site_symmetry_multiplicity
 _atom_site_fract_x
 _atom_site_fract_y
 _atom_site_fract_z
 _atom_site_occupancy
  Ba  Ba0  1  0.07132741  0.12180816  0.27077083  1
  Ba  Ba1  1  -0.10252188  -0.11859868  -0.08767554  1
  Zn  Zn2  1  0.28242601  0.56966392  0.66625806  1
  Zn  Zn3  1  0.68844269  0.43362960  0.51592492  1
  Si  Si4  1  0.69893946  0.39391914  0.86029416  1
  Si  Si5  1  0.27275633  0.61108786  0.32142757  1
