# generated using pymatgen
data_Be5H
_symmetry_space_group_name_H-M   'P 1'
_cell_length_a   3.94167327
_cell_length_b   3.64696936
_cell_length_c   3.78557288
_cell_angle_alpha   89.11977474
_cell_angle_beta   118.54433725
_cell_angle_gamma   90.54993425
_symmetry_Int_Tables_number   1
_chemical_formula_structural   Be5H
_chemical_formula_sum   'Be5 H1'
_cell_volume   47.79775815
_cell_formula_units_Z   1
loop_
 _symmetry_equiv_pos_site_id
 _symmetry_equiv_pos_as_xyz
  1  'x, y, z'
loop_
 _atom_site_type_symbol
 _atom_site_label
 _atom_site_symmetry_multiplicity
 _atom_site_fract_x
 _atom_site_fract_y
 _atom_site_fract_z
 _atom_site_occupancy
  Be  Be0  1  0.31206627  0.54332866  -0.11415346  1
  Be  Be1  1  0.63842681  0.05119066  0.19621675  1
  Be  Be2  1  0.30129217  0.05122660  0.52888851  1
  Be  Be3  1  0.62928921  0.54331106  0.54375086  1
  Be  Be4  1  -0.02887894  0.56727234  0.22144660  1
  H  H5  1  -0.02886551  -0.00010932  0.13837074  1
