# generated using pymatgen
data_BeAu
_symmetry_space_group_name_H-M   'P 1'
_cell_length_a   2.84286622
_cell_length_b   3.31898865
_cell_length_c   3.48242513
_cell_angle_alpha   120.47692660
_cell_angle_beta   90.05574571
_cell_angle_gamma   90.26753922
_symmetry_Int_Tables_number   1
_chemical_formula_structural   BeAu
_chemical_formula_sum   'Be1 Au1'
_cell_volume   28.31778890
_cell_formula_units_Z   1
loop_
 _symmetry_equiv_pos_site_id
 _symmetry_equiv_pos_as_xyz
  1  'x, y, z'
loop_
 _atom_site_type_symbol
 _atom_site_label
 _atom_site_symmetry_multiplicity
 _atom_site_fract_x
 _atom_site_fract_y
 _atom_site_fract_z
 _atom_site_occupancy
  Be  Be0  1  -0.08115154  -0.06520613  -0.00577910  1
  Au  Au1  1  0.41960154  0.25207613  0.64852910  1
