# generated using pymatgen
data_BeGaRh2
_symmetry_space_group_name_H-M   'P 1'
_cell_length_a   2.93911881
_cell_length_b   4.14457782
_cell_length_c   4.02057495
_cell_angle_alpha   89.24122642
_cell_angle_beta   88.04982560
_cell_angle_gamma   89.68895432
_symmetry_Int_Tables_number   1
_chemical_formula_structural   BeGaRh2
_chemical_formula_sum   'Be1 Ga1 Rh2'
_cell_volume   48.94299175
_cell_formula_units_Z   1
loop_
 _symmetry_equiv_pos_site_id
 _symmetry_equiv_pos_as_xyz
  1  'x, y, z'
loop_
 _atom_site_type_symbol
 _atom_site_label
 _atom_site_symmetry_multiplicity
 _atom_site_fract_x
 _atom_site_fract_y
 _atom_site_fract_z
 _atom_site_occupancy
  Be  Be0  1  0.32157608  0.11723222  0.34478295  1
  Ga  Ga1  1  0.32054599  0.61756197  0.84304393  1
  Rh  Rh2  1  0.82026658  0.11780058  0.84378549  1
  Rh  Rh3  1  -0.17892864  0.61765524  0.34314763  1
