# generated using pymatgen
data_BeSiP2
_symmetry_space_group_name_H-M   'P 1'
_cell_length_a   5.34974525
_cell_length_b   3.74842952
_cell_length_c   7.12054714
_cell_angle_alpha   108.67828439
_cell_angle_beta   98.34686123
_cell_angle_gamma   89.76662677
_symmetry_Int_Tables_number   1
_chemical_formula_structural   BeSiP2
_chemical_formula_sum   'Be2 Si2 P4'
_cell_volume   133.69891650
_cell_formula_units_Z   2
loop_
 _symmetry_equiv_pos_site_id
 _symmetry_equiv_pos_as_xyz
  1  'x, y, z'
loop_
 _atom_site_type_symbol
 _atom_site_label
 _atom_site_symmetry_multiplicity
 _atom_site_fract_x
 _atom_site_fract_y
 _atom_site_fract_z
 _atom_site_occupancy
  Be  Be0  1  0.73255308  0.18237828  0.63710231  1
  Be  Be1  1  0.00901681  0.04262733  -0.00282440  1
  Si  Si2  1  0.20867009  0.70811100  0.46179528  1
  Si  Si3  1  0.68754631  0.59020409  -0.05669404  1
  P  P4  1  0.12348137  0.30868094  0.63962860  1
  P  P5  1  0.86063497  0.46410355  0.23107237  1
  P  P6  1  0.62509350  0.58638719  0.47964117  1
  P  P7  1  0.25567388  0.54865762  0.96301871  1
