# generated using pymatgen
data_BiHAu2
_symmetry_space_group_name_H-M   'P 1'
_cell_length_a   6.77295238
_cell_length_b   3.70667976
_cell_length_c   6.18170249
_cell_angle_alpha   58.98271437
_cell_angle_beta   46.89213458
_cell_angle_gamma   43.45640004
_symmetry_Int_Tables_number   1
_chemical_formula_structural   BiHAu2
_chemical_formula_sum   'Bi1 H1 Au2'
_cell_volume   77.87167936
_cell_formula_units_Z   1
loop_
 _symmetry_equiv_pos_site_id
 _symmetry_equiv_pos_as_xyz
  1  'x, y, z'
loop_
 _atom_site_type_symbol
 _atom_site_label
 _atom_site_symmetry_multiplicity
 _atom_site_fract_x
 _atom_site_fract_y
 _atom_site_fract_z
 _atom_site_occupancy
  Bi  Bi0  1  0.12083694  0.17358304  0.26381817  1
  H  H1  1  0.70093276  0.74561201  0.77208181  1
  Au  Au2  1  0.50441703  0.26906771  0.55489366  1
  Au  Au3  1  -0.03917673  0.17446723  -0.08807363  1
