# generated using pymatgen
data_BiHAu4
_symmetry_space_group_name_H-M   'P 1'
_cell_length_a   5.59604775
_cell_length_b   5.43359385
_cell_length_c   5.66102303
_cell_angle_alpha   61.17391253
_cell_angle_beta   59.91599948
_cell_angle_gamma   61.93055107
_symmetry_Int_Tables_number   1
_chemical_formula_structural   BiHAu4
_chemical_formula_sum   'Bi1 H1 Au4'
_cell_volume   124.40060250
_cell_formula_units_Z   1
loop_
 _symmetry_equiv_pos_site_id
 _symmetry_equiv_pos_as_xyz
  1  'x, y, z'
loop_
 _atom_site_type_symbol
 _atom_site_label
 _atom_site_symmetry_multiplicity
 _atom_site_fract_x
 _atom_site_fract_y
 _atom_site_fract_z
 _atom_site_occupancy
  Bi  Bi0  1  -0.01885307  0.08891499  0.00765255  1
  H  H1  1  0.37470366  -0.07443637  0.31829699  1
  Au  Au2  1  0.63515722  0.59623075  0.68852806  1
  Au  Au3  1  0.67810738  0.67899414  0.12572722  1
  Au  Au4  1  0.54487339  0.17653780  0.62422793  1
  Au  Au5  1  0.11045141  0.76088870  0.58472725  1
