# generated using pymatgen
data_BiTeI
_symmetry_space_group_name_H-M   'P 1'
_cell_length_a   4.42324702
_cell_length_b   4.41996724
_cell_length_c   8.79720050
_cell_angle_alpha   75.40396059
_cell_angle_beta   104.67762838
_cell_angle_gamma   120.05777675
_symmetry_Int_Tables_number   1
_chemical_formula_structural   BiTeI
_chemical_formula_sum   'Bi1 Te1 I1'
_cell_volume   142.38738272
_cell_formula_units_Z   1
loop_
 _symmetry_equiv_pos_site_id
 _symmetry_equiv_pos_as_xyz
  1  'x, y, z'
loop_
 _atom_site_type_symbol
 _atom_site_label
 _atom_site_symmetry_multiplicity
 _atom_site_fract_x
 _atom_site_fract_y
 _atom_site_fract_z
 _atom_site_occupancy
  Bi  Bi0  1  -0.02126632  0.09120602  0.84001775  1
  Te  Te1  1  0.57671939  0.49210141  0.63687886  1
  I  I2  1  0.39592693  0.67581258  0.08627339  1
