# generated using pymatgen
data_Ca2PI
_symmetry_space_group_name_H-M   'P 1'
_cell_length_a   7.44209386
_cell_length_b   6.01028453
_cell_length_c   7.44083068
_cell_angle_alpha   36.14934498
_cell_angle_beta   49.32601835
_cell_angle_gamma   36.15063077
_symmetry_Int_Tables_number   1
_chemical_formula_structural   Ca2PI
_chemical_formula_sum   'Ca2 P1 I1'
_cell_volume   115.81633976
_cell_formula_units_Z   1
loop_
 _symmetry_equiv_pos_site_id
 _symmetry_equiv_pos_as_xyz
  1  'x, y, z'
loop_
 _atom_site_type_symbol
 _atom_site_label
 _atom_site_symmetry_multiplicity
 _atom_site_fract_x
 _atom_site_fract_y
 _atom_site_fract_z
 _atom_site_occupancy
  Ca  Ca0  1  0.61749259  0.86719762  0.63832498  1
  Ca  Ca1  1  0.11750793  0.37476114  0.13893469  1
  P  P2  1  0.61740331  0.37162586  0.63941450  1
  I  I3  1  0.11752617  -0.12354461  0.13819584  1
