# generated using pymatgen
data_Ca2SiIr2
_symmetry_space_group_name_H-M   'P 1'
_cell_length_a   5.50800226
_cell_length_b   5.14749637
_cell_length_c   8.77630930
_cell_angle_alpha   89.40797805
_cell_angle_beta   81.38968082
_cell_angle_gamma   58.00459406
_symmetry_Int_Tables_number   1
_chemical_formula_structural   Ca2SiIr2
_chemical_formula_sum   'Ca4 Si2 Ir4'
_cell_volume   207.94416852
_cell_formula_units_Z   2
loop_
 _symmetry_equiv_pos_site_id
 _symmetry_equiv_pos_as_xyz
  1  'x, y, z'
loop_
 _atom_site_type_symbol
 _atom_site_label
 _atom_site_symmetry_multiplicity
 _atom_site_fract_x
 _atom_site_fract_y
 _atom_site_fract_z
 _atom_site_occupancy
  Ca  Ca0  1  0.62062886  0.83797886  0.10686295  1
  Ca  Ca1  1  0.12808254  0.08359189  0.59418084  1
  Ca  Ca2  1  0.00450525  0.14592180  -0.01965303  1
  Ca  Ca3  1  0.83242442  0.73706030  0.45801206  1
  Si  Si4  1  0.55960779  0.13111208  0.78772169  1
  Si  Si5  1  0.44528420  0.42893002  0.28508599  1
  Ir  Ir6  1  0.04505290  0.63628121  0.79161509  1
  Ir  Ir7  1  0.47638307  0.40605160  0.53921372  1
  Ir  Ir8  1  0.33216821  0.47806954  0.04172293  1
  Ir  Ir9  1  0.57097276  0.64001270  0.78523775  1
