# generated using pymatgen
data_Ca2Zn3
_symmetry_space_group_name_H-M   'P 1'
_cell_length_a   7.31629314
_cell_length_b   3.86788392
_cell_length_c   5.79211842
_cell_angle_alpha   131.90298183
_cell_angle_beta   77.75171013
_cell_angle_gamma   89.65913412
_symmetry_Int_Tables_number   1
_chemical_formula_structural   Ca2Zn3
_chemical_formula_sum   'Ca2 Zn3'
_cell_volume   116.73471291
_cell_formula_units_Z   1
loop_
 _symmetry_equiv_pos_site_id
 _symmetry_equiv_pos_as_xyz
  1  'x, y, z'
loop_
 _atom_site_type_symbol
 _atom_site_label
 _atom_site_symmetry_multiplicity
 _atom_site_fract_x
 _atom_site_fract_y
 _atom_site_fract_z
 _atom_site_occupancy
  Ca  Ca0  1  0.80084805  0.09622832  0.61636181  1
  Ca  Ca1  1  0.29082582  0.85025195  0.36857077  1
  Zn  Zn2  1  0.65281954  0.17005168  0.18840194  1
  Zn  Zn3  1  0.44021099  0.77573920  0.79597074  1
  Zn  Zn4  1  0.04713559  -0.02867114  -0.00793526  1
