# generated using pymatgen
data_Ca3HN
_symmetry_space_group_name_H-M   'P 1'
_cell_length_a   4.94383297
_cell_length_b   4.82063482
_cell_length_c   4.85598862
_cell_angle_alpha   89.97526801
_cell_angle_beta   89.83646793
_cell_angle_gamma   89.76697537
_symmetry_Int_Tables_number   1
_chemical_formula_structural   Ca3HN
_chemical_formula_sum   'Ca3 H1 N1'
_cell_volume   115.72848927
_cell_formula_units_Z   1
loop_
 _symmetry_equiv_pos_site_id
 _symmetry_equiv_pos_as_xyz
  1  'x, y, z'
loop_
 _atom_site_type_symbol
 _atom_site_label
 _atom_site_symmetry_multiplicity
 _atom_site_fract_x
 _atom_site_fract_y
 _atom_site_fract_z
 _atom_site_occupancy
  Ca  Ca0  1  0.33053570  -0.03731479  0.49058539  1
  Ca  Ca1  1  -0.16812474  0.46373877  0.49187364  1
  Ca  Ca2  1  0.33245573  0.46164796  -0.00879391  1
  H  H3  1  0.33565117  -0.03749940  -0.00865350  1
  N  N4  1  0.33201214  0.46293746  0.49225838  1
