# generated using pymatgen
data_Ca3Sn
_symmetry_space_group_name_H-M   'P 1'
_cell_length_a   5.61027572
_cell_length_b   7.24247487
_cell_length_c   7.23245475
_cell_angle_alpha   119.72320871
_cell_angle_beta   89.92984142
_cell_angle_gamma   90.07103967
_symmetry_Int_Tables_number   1
_chemical_formula_structural   Ca3Sn
_chemical_formula_sum   'Ca6 Sn2'
_cell_volume   255.20646894
_cell_formula_units_Z   2
loop_
 _symmetry_equiv_pos_site_id
 _symmetry_equiv_pos_as_xyz
  1  'x, y, z'
loop_
 _atom_site_type_symbol
 _atom_site_label
 _atom_site_symmetry_multiplicity
 _atom_site_fract_x
 _atom_site_fract_y
 _atom_site_fract_z
 _atom_site_occupancy
  Ca  Ca0  1  0.25736654  0.85926388  0.21425881  1
  Ca  Ca1  1  0.25785328  0.34068064  0.14236677  1
  Ca  Ca2  1  0.75731763  0.20237786  0.35283910  1
  Ca  Ca3  1  0.25779604  0.78447854  0.65951190  1
  Ca  Ca4  1  0.75738835  0.64688753  0.86946226  1
  Ca  Ca5  1  0.75804730  0.12856370  0.79837920  1
  Sn  Sn6  1  0.75799357  0.66085468  0.34043861  1
  Sn  Sn7  1  0.25703730  0.32526317  0.67114334  1
