# generated using pymatgen
data_CaAsAu
_symmetry_space_group_name_H-M   'P 1'
_cell_length_a   6.02302304
_cell_length_b   4.26496318
_cell_length_c   8.34273682
_cell_angle_alpha   104.15494499
_cell_angle_beta   68.85748587
_cell_angle_gamma   134.88326200
_symmetry_Int_Tables_number   1
_chemical_formula_structural   CaAsAu
_chemical_formula_sum   'Ca2 As2 Au2'
_cell_volume   141.60950732
_cell_formula_units_Z   2
loop_
 _symmetry_equiv_pos_site_id
 _symmetry_equiv_pos_as_xyz
  1  'x, y, z'
loop_
 _atom_site_type_symbol
 _atom_site_label
 _atom_site_symmetry_multiplicity
 _atom_site_fract_x
 _atom_site_fract_y
 _atom_site_fract_z
 _atom_site_occupancy
  Ca  Ca0  1  0.13850122  0.23581998  0.55341585  1
  Ca  Ca1  1  -0.10269207  -0.25881986  0.05338130  1
  As  As2  1  0.32036697  0.73255340  0.21329891  1
  As  As3  1  0.54440137  0.22606375  0.71336015  1
  Au  Au4  1  0.73146413  0.25482515  0.38789530  1
  Au  Au5  1  0.48493837  0.75035758  0.88746849  1
