# generated using pymatgen
data_CaSbAu
_symmetry_space_group_name_H-M   'P 1'
_cell_length_a   4.56265280
_cell_length_b   4.74087206
_cell_length_c   9.65168666
_cell_angle_alpha   82.50059518
_cell_angle_beta   90.13808330
_cell_angle_gamma   118.56185588
_symmetry_Int_Tables_number   1
_chemical_formula_structural   CaSbAu
_chemical_formula_sum   'Ca2 Sb2 Au2'
_cell_volume   181.36712702
_cell_formula_units_Z   2
loop_
 _symmetry_equiv_pos_site_id
 _symmetry_equiv_pos_as_xyz
  1  'x, y, z'
loop_
 _atom_site_type_symbol
 _atom_site_label
 _atom_site_symmetry_multiplicity
 _atom_site_fract_x
 _atom_site_fract_y
 _atom_site_fract_z
 _atom_site_occupancy
  Ca  Ca0  1  0.03402065  0.00435098  -0.05783604  1
  Ca  Ca1  1  -0.02366451  -0.11171751  0.32910621  1
  Sb  Sb2  1  0.40983873  0.75798425  0.73006504  1
  Sb  Sb3  1  0.62960921  0.19615043  0.47820730  1
  Au  Au4  1  0.33374002  0.60420100  0.13476761  1
  Au  Au5  1  0.73107591  0.39719087  0.76710988  1
