# generated using pymatgen
data_CaYAg2
_symmetry_space_group_name_H-M   'P 1'
_cell_length_a   5.18619681
_cell_length_b   5.18427057
_cell_length_c   5.19789563
_cell_angle_alpha   59.83107404
_cell_angle_beta   59.88902834
_cell_angle_gamma   60.08213878
_symmetry_Int_Tables_number   1
_chemical_formula_structural   CaYAg2
_chemical_formula_sum   'Ca1 Y1 Ag2'
_cell_volume   98.67219475
_cell_formula_units_Z   1
loop_
 _symmetry_equiv_pos_site_id
 _symmetry_equiv_pos_as_xyz
  1  'x, y, z'
loop_
 _atom_site_type_symbol
 _atom_site_label
 _atom_site_symmetry_multiplicity
 _atom_site_fract_x
 _atom_site_fract_y
 _atom_site_fract_z
 _atom_site_occupancy
  Ca  Ca0  1  0.53951871  0.55176038  0.41054749  1
  Y  Y1  1  0.03921850  0.05191046  -0.08908763  1
  Ag  Ag2  1  0.78745530  0.80128486  0.66073706  1
  Ag  Ag3  1  0.28889749  0.30275430  0.16149307  1
