# generated using pymatgen
data_CdBr2
_symmetry_space_group_name_H-M   'P 1'
_cell_length_a   8.04106432
_cell_length_b   5.92786710
_cell_length_c   4.29707077
_cell_angle_alpha   45.84391913
_cell_angle_beta   57.70489411
_cell_angle_gamma   52.08234523
_symmetry_Int_Tables_number   1
_chemical_formula_structural   CdBr2
_chemical_formula_sum   'Cd1 Br2'
_cell_volume   113.87030902
_cell_formula_units_Z   1
loop_
 _symmetry_equiv_pos_site_id
 _symmetry_equiv_pos_as_xyz
  1  'x, y, z'
loop_
 _atom_site_type_symbol
 _atom_site_label
 _atom_site_symmetry_multiplicity
 _atom_site_fract_x
 _atom_site_fract_y
 _atom_site_fract_z
 _atom_site_occupancy
  Cd  Cd0  1  -0.03894899  0.11242153  -0.09167414  1
  Br  Br1  1  0.70824899  0.77454994  0.50275213  1
  Br  Br2  1  0.20943000  -0.03690148  0.30275201  1
