# generated using pymatgen
data_CdPd2Au
_symmetry_space_group_name_H-M   'P 1'
_cell_length_a   4.08237816
_cell_length_b   5.75065874
_cell_length_c   4.99461204
_cell_angle_alpha   54.93914279
_cell_angle_beta   66.05635088
_cell_angle_gamma   45.06103584
_symmetry_Int_Tables_number   1
_chemical_formula_structural   CdPd2Au
_chemical_formula_sum   'Cd1 Pd2 Au1'
_cell_volume   67.93927260
_cell_formula_units_Z   1
loop_
 _symmetry_equiv_pos_site_id
 _symmetry_equiv_pos_as_xyz
  1  'x, y, z'
loop_
 _atom_site_type_symbol
 _atom_site_label
 _atom_site_symmetry_multiplicity
 _atom_site_fract_x
 _atom_site_fract_y
 _atom_site_fract_z
 _atom_site_occupancy
  Cd  Cd0  1  0.14406770  -0.28282972  0.12919380  1
  Pd  Pd1  1  0.14530773  0.21657667  0.12883963  1
  Pd  Pd2  1  0.64391002  0.96608291  0.62903812  1
  Au  Au3  1  0.64524455  0.46548014  0.62902844  1
