# generated using pymatgen
data_CdSe2
_symmetry_space_group_name_H-M   'P 1'
_cell_length_a   6.79203067
_cell_length_b   6.52958673
_cell_length_c   8.82260300
_cell_angle_alpha   79.18381238
_cell_angle_beta   74.82165978
_cell_angle_gamma   79.94258176
_symmetry_Int_Tables_number   1
_chemical_formula_structural   CdSe2
_chemical_formula_sum   'Cd4 Se8'
_cell_volume   367.65186335
_cell_formula_units_Z   4
loop_
 _symmetry_equiv_pos_site_id
 _symmetry_equiv_pos_as_xyz
  1  'x, y, z'
loop_
 _atom_site_type_symbol
 _atom_site_label
 _atom_site_symmetry_multiplicity
 _atom_site_fract_x
 _atom_site_fract_y
 _atom_site_fract_z
 _atom_site_occupancy
  Cd  Cd0  1  0.47071112  0.43575537  0.03149914  1
  Cd  Cd1  1  0.42583440  -0.01667056  0.58219155  1
  Cd  Cd2  1  -0.06864190  0.49070956  0.62061258  1
  Cd  Cd3  1  -0.02190528  -0.01275041  -0.04470697  1
  Se  Se4  1  0.13797297  0.84958360  0.24025823  1
  Se  Se5  1  0.84842629  0.33162889  0.09854154  1
  Se  Se6  1  0.41849091  0.15279722  0.86697245  1
  Se  Se7  1  0.72248182  0.74617747  0.43354914  1
  Se  Se8  1  0.02857811  0.07052268  0.63869081  1
  Se  Se9  1  0.01610427  0.57756099  0.88778512  1
  Se  Se10  1  0.50376522  0.85795607  0.05522825  1
  Se  Se11  1  0.23856208  0.48834914  0.32446817  1
