# generated using pymatgen
data_CdSnF6
_symmetry_space_group_name_H-M   'P 1'
_cell_length_a   6.82721591
_cell_length_b   5.41295670
_cell_length_c   8.50039392
_cell_angle_alpha   39.49848646
_cell_angle_beta   49.32136996
_cell_angle_gamma   58.35229914
_symmetry_Int_Tables_number   1
_chemical_formula_structural   CdSnF6
_chemical_formula_sum   'Cd1 Sn1 F6'
_cell_volume   151.37644479
_cell_formula_units_Z   1
loop_
 _symmetry_equiv_pos_site_id
 _symmetry_equiv_pos_as_xyz
  1  'x, y, z'
loop_
 _atom_site_type_symbol
 _atom_site_label
 _atom_site_symmetry_multiplicity
 _atom_site_fract_x
 _atom_site_fract_y
 _atom_site_fract_z
 _atom_site_occupancy
  Cd  Cd0  1  0.51695429  0.53023263  0.74670482  1
  Sn  Sn1  1  0.01173327  0.04952453  -0.08182746  1
  F  F2  1  0.28059834  0.11864000  0.57733208  1
  F  F3  1  0.76881426  0.89019040  0.29108673  1
  F  F4  1  0.17233269  0.50563116  0.10566913  1
  F  F5  1  0.26511262  0.23148625  0.85477272  1
  F  F6  1  0.74007303  -0.05553453  0.94891221  1
  F  F7  1  0.84651150  0.58753955  -0.27444023  1
