# generated using pymatgen
data_CeMgRh2
_symmetry_space_group_name_H-M   'P 1'
_cell_length_a   4.86140599
_cell_length_b   4.24643854
_cell_length_c   5.11697615
_cell_angle_alpha   57.28337221
_cell_angle_beta   58.80867448
_cell_angle_gamma   60.24894482
_symmetry_Int_Tables_number   1
_chemical_formula_structural   CeMgRh2
_chemical_formula_sum   'Ce1 Mg1 Rh2'
_cell_volume   72.51222721
_cell_formula_units_Z   1
loop_
 _symmetry_equiv_pos_site_id
 _symmetry_equiv_pos_as_xyz
  1  'x, y, z'
loop_
 _atom_site_type_symbol
 _atom_site_label
 _atom_site_symmetry_multiplicity
 _atom_site_fract_x
 _atom_site_fract_y
 _atom_site_fract_z
 _atom_site_occupancy
  Ce  Ce0  1  0.27834066  0.23280544  0.25190769  1
  Mg  Mg1  1  0.77812274  0.73307776  0.75179221  1
  Rh  Rh2  1  0.03889604  -0.05335072  0.00253260  1
  Rh  Rh3  1  0.51806057  0.51923752  0.50065750  1
