# generated using pymatgen
data_CeN
_symmetry_space_group_name_H-M   'P 1'
_cell_length_a   3.85510971
_cell_length_b   5.45042033
_cell_length_c   3.84461973
_cell_angle_alpha   44.85575665
_cell_angle_beta   59.92566784
_cell_angle_gamma   45.06054723
_symmetry_Int_Tables_number   1
_chemical_formula_structural   CeN
_chemical_formula_sum   'Ce1 N1'
_cell_volume   40.33224054
_cell_formula_units_Z   1
loop_
 _symmetry_equiv_pos_site_id
 _symmetry_equiv_pos_as_xyz
  1  'x, y, z'
loop_
 _atom_site_type_symbol
 _atom_site_label
 _atom_site_symmetry_multiplicity
 _atom_site_fract_x
 _atom_site_fract_y
 _atom_site_fract_z
 _atom_site_occupancy
  Ce  Ce0  1  0.00707559  -0.04893425  -0.02461042  1
  N  N1  1  0.50678441  0.70091425  0.47545042  1
