# generated using pymatgen
data_CePd
_symmetry_space_group_name_H-M   'P 1'
_cell_length_a   3.55081804
_cell_length_b   3.60015143
_cell_length_c   3.58111505
_cell_angle_alpha   90.37529345
_cell_angle_beta   89.35232069
_cell_angle_gamma   90.04322629
_symmetry_Int_Tables_number   1
_chemical_formula_structural   CePd
_chemical_formula_sum   'Ce1 Pd1'
_cell_volume   45.77520454
_cell_formula_units_Z   1
loop_
 _symmetry_equiv_pos_site_id
 _symmetry_equiv_pos_as_xyz
  1  'x, y, z'
loop_
 _atom_site_type_symbol
 _atom_site_label
 _atom_site_symmetry_multiplicity
 _atom_site_fract_x
 _atom_site_fract_y
 _atom_site_fract_z
 _atom_site_occupancy
  Ce  Ce0  1  0.01364140  0.03188443  0.01371114  1
  Pd  Pd1  1  0.51345860  0.53183557  0.51325886  1
