# generated using pymatgen
data_Cr2Si2HC
_symmetry_space_group_name_H-M   'P 1'
_cell_length_a   2.95668488
_cell_length_b   4.08004791
_cell_length_c   5.92520957
_cell_angle_alpha   80.37062708
_cell_angle_beta   89.90966004
_cell_angle_gamma   89.86999388
_symmetry_Int_Tables_number   1
_chemical_formula_structural   Cr2Si2HC
_chemical_formula_sum   'Cr2 Si2 H1 C1'
_cell_volume   70.47093507
_cell_formula_units_Z   1
loop_
 _symmetry_equiv_pos_site_id
 _symmetry_equiv_pos_as_xyz
  1  'x, y, z'
loop_
 _atom_site_type_symbol
 _atom_site_label
 _atom_site_symmetry_multiplicity
 _atom_site_fract_x
 _atom_site_fract_y
 _atom_site_fract_z
 _atom_site_occupancy
  Cr  Cr0  1  -0.00862406  0.43659029  0.58303886  1
  Cr  Cr1  1  0.49159274  -0.03144620  0.49030226  1
  Si  Si2  1  0.49069656  0.55973770  0.86486544  1
  Si  Si3  1  0.49249519  0.52663454  0.26334533  1
  H  H4  1  -0.01421574  -0.02592508  -0.10130386  1
  C  C5  1  -0.00859469  -0.09618125  0.72397197  1
