# generated using pymatgen
data_Cs2NaHF6
_symmetry_space_group_name_H-M   'P 1'
_cell_length_a   5.93713902
_cell_length_b   7.32210512
_cell_length_c   5.36692206
_cell_angle_alpha   73.79505396
_cell_angle_beta   71.09519788
_cell_angle_gamma   58.97644281
_symmetry_Int_Tables_number   1
_chemical_formula_structural   Cs2NaHF6
_chemical_formula_sum   'Cs2 Na1 H1 F6'
_cell_volume   187.33702414
_cell_formula_units_Z   1
loop_
 _symmetry_equiv_pos_site_id
 _symmetry_equiv_pos_as_xyz
  1  'x, y, z'
loop_
 _atom_site_type_symbol
 _atom_site_label
 _atom_site_symmetry_multiplicity
 _atom_site_fract_x
 _atom_site_fract_y
 _atom_site_fract_z
 _atom_site_occupancy
  Cs  Cs0  1  0.21641980  0.14907625  0.27554308  1
  Cs  Cs1  1  0.77824890  0.75070641  0.70160081  1
  Na  Na2  1  0.45258678  0.53101508  0.43583589  1
  H  H3  1  0.19920970  -0.21421556  -0.04278029  1
  F  F4  1  0.24169701  0.78518687  0.72558384  1
  F  F5  1  0.17082298  0.79134935  0.17168017  1
  F  F6  1  0.59581023  0.29160245  0.85172158  1
  F  F7  1  0.80480281  0.57282781  0.25109559  1
  F  F8  1  0.42151518  0.23300603  0.65877577  1
  F  F9  1  0.71623659  0.36705532  0.02921355  1
