# generated using pymatgen
data_Cs2OsBr
_symmetry_space_group_name_H-M   'P 1'
_cell_length_a   9.05482805
_cell_length_b   4.81915791
_cell_length_c   9.07506169
_cell_angle_alpha   104.81076414
_cell_angle_beta   135.45173146
_cell_angle_gamma   106.03714980
_symmetry_Int_Tables_number   1
_chemical_formula_structural   Cs2OsBr
_chemical_formula_sum   'Cs2 Os1 Br1'
_cell_volume   197.92148349
_cell_formula_units_Z   1
loop_
 _symmetry_equiv_pos_site_id
 _symmetry_equiv_pos_as_xyz
  1  'x, y, z'
loop_
 _atom_site_type_symbol
 _atom_site_label
 _atom_site_symmetry_multiplicity
 _atom_site_fract_x
 _atom_site_fract_y
 _atom_site_fract_z
 _atom_site_occupancy
  Cs  Cs0  1  0.67473261  0.08495652  0.47173990  1
  Cs  Cs1  1  0.40708679  0.95171885  0.66239236  1
  Os  Os2  1  0.04654313  0.02537874  0.06992763  1
  Br  Br3  1  0.23788748  0.09515589  -0.08173989  1
