# generated using pymatgen
data_CsAuO2
_symmetry_space_group_name_H-M   'P 1'
_cell_length_a   4.39273766
_cell_length_b   7.74445763
_cell_length_c   7.74561362
_cell_angle_alpha   90.69784444
_cell_angle_beta   81.51442352
_cell_angle_gamma   82.67959947
_symmetry_Int_Tables_number   1
_chemical_formula_structural   CsAuO2
_chemical_formula_sum   'Cs2 Au2 O4'
_cell_volume   258.36317823
_cell_formula_units_Z   2
loop_
 _symmetry_equiv_pos_site_id
 _symmetry_equiv_pos_as_xyz
  1  'x, y, z'
loop_
 _atom_site_type_symbol
 _atom_site_label
 _atom_site_symmetry_multiplicity
 _atom_site_fract_x
 _atom_site_fract_y
 _atom_site_fract_z
 _atom_site_occupancy
  Cs  Cs0  1  0.46802346  0.78073201  0.39588014  1
  Cs  Cs1  1  0.51974353  0.27639315  0.68402976  1
  Au  Au2  1  0.02015786  0.21895033  0.26416477  1
  Au  Au3  1  0.03551280  0.98361382  0.92931298  1
  O  O4  1  0.07863062  -0.00340304  0.68285413  1
  O  O5  1  0.06004190  0.45777949  0.33689392  1
  O  O6  1  0.01555656  0.50088477  0.51386721  1
  O  O7  1  0.98443326  -0.01564053  0.18495710  1
