# generated using pymatgen
data_CsAuSe
_symmetry_space_group_name_H-M   'P 1'
_cell_length_a   7.39633027
_cell_length_b   6.04829271
_cell_length_c   6.52143730
_cell_angle_alpha   90.48685957
_cell_angle_beta   89.86788434
_cell_angle_gamma   66.05288680
_symmetry_Int_Tables_number   1
_chemical_formula_structural   CsAuSe
_chemical_formula_sum   'Cs2 Au2 Se2'
_cell_volume   266.61007156
_cell_formula_units_Z   2
loop_
 _symmetry_equiv_pos_site_id
 _symmetry_equiv_pos_as_xyz
  1  'x, y, z'
loop_
 _atom_site_type_symbol
 _atom_site_label
 _atom_site_symmetry_multiplicity
 _atom_site_fract_x
 _atom_site_fract_y
 _atom_site_fract_z
 _atom_site_occupancy
  Cs  Cs0  1  0.69082533  0.57834977  0.23641605  1
  Cs  Cs1  1  0.22235199  0.31550691  0.72278364  1
  Au  Au2  1  -0.04333423  -0.05359124  -0.01876573  1
  Au  Au3  1  -0.04262178  -0.05429354  0.48093539  1
  Se  Se4  1  0.17318066  0.65539612  0.22796275  1
  Se  Se5  1  0.74130802  0.23680198  0.73398790  1
