# generated using pymatgen
data_CsSmS2
_symmetry_space_group_name_H-M   'P 1'
_cell_length_a   8.95284682
_cell_length_b   11.00854435
_cell_length_c   11.70404206
_cell_angle_alpha   20.19650970
_cell_angle_beta   28.40425272
_cell_angle_gamma   20.23907677
_symmetry_Int_Tables_number   1
_chemical_formula_structural   CsSmS2
_chemical_formula_sum   'Cs1 Sm1 S2'
_cell_volume   137.76343544
_cell_formula_units_Z   1
loop_
 _symmetry_equiv_pos_site_id
 _symmetry_equiv_pos_as_xyz
  1  'x, y, z'
loop_
 _atom_site_type_symbol
 _atom_site_label
 _atom_site_symmetry_multiplicity
 _atom_site_fract_x
 _atom_site_fract_y
 _atom_site_fract_z
 _atom_site_occupancy
  Cs  Cs0  1  -0.06886293  0.16442917  -0.07302287  1
  Sm  Sm1  1  0.57418487  0.58791191  0.37315079  1
  S  S2  1  0.93534676  0.65010839  0.86971742  1
  S  S3  1  0.08528130  0.31828053  0.42375467  1
