# generated using pymatgen
data_CsSnS3
_symmetry_space_group_name_H-M   'P 1'
_cell_length_a   6.52825804
_cell_length_b   9.26584816
_cell_length_c   7.11674100
_cell_angle_alpha   96.32356824
_cell_angle_beta   95.46112648
_cell_angle_gamma   118.61731682
_symmetry_Int_Tables_number   1
_chemical_formula_structural   CsSnS3
_chemical_formula_sum   'Cs2 Sn2 S6'
_cell_volume   370.16429824
_cell_formula_units_Z   2
loop_
 _symmetry_equiv_pos_site_id
 _symmetry_equiv_pos_as_xyz
  1  'x, y, z'
loop_
 _atom_site_type_symbol
 _atom_site_label
 _atom_site_symmetry_multiplicity
 _atom_site_fract_x
 _atom_site_fract_y
 _atom_site_fract_z
 _atom_site_occupancy
  Cs  Cs0  1  0.49964494  0.88183021  0.30002190  1
  Cs  Cs1  1  0.20583743  0.09800505  0.85885225  1
  Sn  Sn2  1  0.16945664  0.36122224  0.35427583  1
  Sn  Sn3  1  0.89474284  0.47175116  0.68195206  1
  S  S4  1  0.30738251  0.74041796  -0.22674951  1
  S  S5  1  0.83189014  0.24256948  0.05545978  1
  S  S6  1  0.14344478  0.09582416  0.36194587  1
  S  S7  1  0.73138164  0.67659026  0.62717272  1
  S  S8  1  0.79692153  0.45251455  0.02411312  1
  S  S9  1  0.49779755  0.61906494  0.82591598  1
