# generated using pymatgen
data_Dy2HS2
_symmetry_space_group_name_H-M   'P 1'
_cell_length_a   6.24175953
_cell_length_b   6.79760572
_cell_length_c   5.53835848
_cell_angle_alpha   144.46392079
_cell_angle_beta   125.57111764
_cell_angle_gamma   61.79597149
_symmetry_Int_Tables_number   1
_chemical_formula_structural   Dy2HS2
_chemical_formula_sum   'Dy2 H1 S2'
_cell_volume   111.09172488
_cell_formula_units_Z   1
loop_
 _symmetry_equiv_pos_site_id
 _symmetry_equiv_pos_as_xyz
  1  'x, y, z'
loop_
 _atom_site_type_symbol
 _atom_site_label
 _atom_site_symmetry_multiplicity
 _atom_site_fract_x
 _atom_site_fract_y
 _atom_site_fract_z
 _atom_site_occupancy
  Dy  Dy0  1  0.83269799  0.34736082  0.40695613  1
  Dy  Dy1  1  0.19252708  0.84826161  0.65022467  1
  H  H2  1  -0.04073940  -0.15162257  -0.17627147  1
  S  S3  1  0.69630066  0.84602536  0.13639877  1
  S  S4  1  0.32238367  0.34839478  -0.07569810  1
