# generated using pymatgen
data_Dy4Te3S4
_symmetry_space_group_name_H-M   'P 1'
_cell_length_a   10.01090283
_cell_length_b   9.05125084
_cell_length_c   4.06173445
_cell_angle_alpha   77.98394036
_cell_angle_beta   95.27861668
_cell_angle_gamma   129.21265305
_symmetry_Int_Tables_number   1
_chemical_formula_structural   Dy4Te3S4
_chemical_formula_sum   'Dy4 Te3 S4'
_cell_volume   278.52873259
_cell_formula_units_Z   1
loop_
 _symmetry_equiv_pos_site_id
 _symmetry_equiv_pos_as_xyz
  1  'x, y, z'
loop_
 _atom_site_type_symbol
 _atom_site_label
 _atom_site_symmetry_multiplicity
 _atom_site_fract_x
 _atom_site_fract_y
 _atom_site_fract_z
 _atom_site_occupancy
  Dy  Dy0  1  0.83796239  0.50878880  0.81222626  1
  Dy  Dy1  1  0.68429624  -0.03754304  0.56214765  1
  Dy  Dy2  1  0.17866465  0.43856319  0.36667636  1
  Dy  Dy3  1  0.34198083  0.03064339  0.01182693  1
  Te  Te4  1  0.75746126  0.73211531  0.18847661  1
  Te  Te5  1  0.42039362  0.44401489  0.90682057  1
  Te  Te6  1  0.09580630  0.02013768  0.47768617  1
  S  S7  1  0.45076698  -0.18120761  0.07703428  1
  S  S8  1  0.07044087  0.65057850  0.29842585  1
  S  S9  1  0.59942193  0.21747299  0.44193295  1
  S  S10  1  -0.07822507  0.25267590  -0.06558361  1
