# generated using pymatgen
data_DyGa3Cu
_symmetry_space_group_name_H-M   'P 1'
_cell_length_a   4.48237438
_cell_length_b   7.98408202
_cell_length_c   4.48335864
_cell_angle_alpha   131.17000846
_cell_angle_beta   124.92184873
_cell_angle_gamma   79.87688773
_symmetry_Int_Tables_number   1
_chemical_formula_structural   DyGa3Cu
_chemical_formula_sum   'Dy1 Ga3 Cu1'
_cell_volume   93.62810627
_cell_formula_units_Z   1
loop_
 _symmetry_equiv_pos_site_id
 _symmetry_equiv_pos_as_xyz
  1  'x, y, z'
loop_
 _atom_site_type_symbol
 _atom_site_label
 _atom_site_symmetry_multiplicity
 _atom_site_fract_x
 _atom_site_fract_y
 _atom_site_fract_z
 _atom_site_occupancy
  Dy  Dy0  1  -0.01493407  0.00345621  -0.01209408  1
  Ga  Ga1  1  0.50100825  0.71766117  -0.10175097  1
  Ga  Ga2  1  0.55749122  0.38649824  0.18535438  1
  Ga  Ga3  1  0.81739436  0.28754346  0.72662359  1
  Cu  Cu4  1  0.16842024  0.68121092  0.15785709  1
