# generated using pymatgen
data_DyHg2
_symmetry_space_group_name_H-M   'P 1'
_cell_length_a   3.82558762
_cell_length_b   6.27572749
_cell_length_c   3.44095299
_cell_angle_alpha   88.35425251
_cell_angle_beta   90.00638041
_cell_angle_gamma   107.82122092
_symmetry_Int_Tables_number   1
_chemical_formula_structural   DyHg2
_chemical_formula_sum   'Dy1 Hg2'
_cell_volume   78.61185102
_cell_formula_units_Z   1
loop_
 _symmetry_equiv_pos_site_id
 _symmetry_equiv_pos_as_xyz
  1  'x, y, z'
loop_
 _atom_site_type_symbol
 _atom_site_label
 _atom_site_symmetry_multiplicity
 _atom_site_fract_x
 _atom_site_fract_y
 _atom_site_fract_z
 _atom_site_occupancy
  Dy  Dy0  1  -0.01452906  -0.02065685  0.02029583  1
  Hg  Hg1  1  0.32902929  0.66649586  0.53657606  1
  Hg  Hg2  1  0.64037977  0.29207099  0.50418810  1
