# generated using pymatgen
data_DySbPd
_symmetry_space_group_name_H-M   'P 1'
_cell_length_a   3.80008029
_cell_length_b   4.56686809
_cell_length_c   5.87771364
_cell_angle_alpha   67.75642890
_cell_angle_beta   50.39931335
_cell_angle_gamma   90.46079043
_symmetry_Int_Tables_number   1
_chemical_formula_structural   DySbPd
_chemical_formula_sum   'Dy1 Sb1 Pd1'
_cell_volume   68.15531445
_cell_formula_units_Z   1
loop_
 _symmetry_equiv_pos_site_id
 _symmetry_equiv_pos_as_xyz
  1  'x, y, z'
loop_
 _atom_site_type_symbol
 _atom_site_label
 _atom_site_symmetry_multiplicity
 _atom_site_fract_x
 _atom_site_fract_y
 _atom_site_fract_z
 _atom_site_occupancy
  Dy  Dy0  1  0.14515436  0.08373036  -0.27088856  1
  Sb  Sb1  1  -0.67175169  0.41780637  0.06241752  1
  Pd  Pd2  1  0.95685733  0.75379327  0.39357105  1
