# generated using pymatgen
data_Er6MnTe2
_symmetry_space_group_name_H-M   'P 1'
_cell_length_a   9.10831559
_cell_length_b   9.27713690
_cell_length_c   3.80161750
_cell_angle_alpha   114.20115755
_cell_angle_beta   89.97280491
_cell_angle_gamma   119.78968133
_symmetry_Int_Tables_number   1
_chemical_formula_structural   Er6MnTe2
_chemical_formula_sum   'Er6 Mn1 Te2'
_cell_volume   245.76195519
_cell_formula_units_Z   1
loop_
 _symmetry_equiv_pos_site_id
 _symmetry_equiv_pos_as_xyz
  1  'x, y, z'
loop_
 _atom_site_type_symbol
 _atom_site_label
 _atom_site_symmetry_multiplicity
 _atom_site_fract_x
 _atom_site_fract_y
 _atom_site_fract_z
 _atom_site_occupancy
  Er  Er0  1  0.49219411  -0.02181747  0.40880203  1
  Er  Er1  1  0.12545195  0.69206608  0.62233450  1
  Er  Er2  1  0.46684937  0.62990980  0.56081018  1
  Er  Er3  1  0.90959729  -0.00143829  -0.07181302  1
  Er  Er4  1  0.77420400  0.60350949  0.03328886  1
  Er  Er5  1  0.35765887  0.20430127  0.13523004  1
  Mn  Mn6  1  0.12628838  -0.06499509  0.36537613  1
  Te  Te7  1  0.16285139  0.33646938  -0.23286125  1
  Te  Te8  1  0.75695464  0.29230482  0.22231253  1
