# generated using pymatgen
data_Er6MnBi2
_symmetry_space_group_name_H-M   'P 1'
_cell_length_a   7.38675597
_cell_length_b   9.87208535
_cell_length_c   4.06913561
_cell_angle_alpha   65.68623301
_cell_angle_beta   105.95577623
_cell_angle_gamma   85.21262251
_symmetry_Int_Tables_number   1
_chemical_formula_structural   Er6MnBi2
_chemical_formula_sum   'Er6 Mn1 Bi2'
_cell_volume   253.36328761
_cell_formula_units_Z   1
loop_
 _symmetry_equiv_pos_site_id
 _symmetry_equiv_pos_as_xyz
  1  'x, y, z'
loop_
 _atom_site_type_symbol
 _atom_site_label
 _atom_site_symmetry_multiplicity
 _atom_site_fract_x
 _atom_site_fract_y
 _atom_site_fract_z
 _atom_site_occupancy
  Er  Er0  1  0.13717659  -0.00228321  -0.01503971  1
  Er  Er1  1  0.10095420  0.62923258  0.33505394  1
  Er  Er2  1  0.71184079  0.68260361  0.58702155  1
  Er  Er3  1  0.59489522  0.41921104  0.29213165  1
  Er  Er4  1  -0.00107486  0.31202581  0.10117994  1
  Er  Er5  1  0.67316190  0.00896513  0.74160020  1
  Mn  Mn6  1  -0.04141132  -0.14544724  0.53889752  1
  Bi  Bi7  1  0.37320845  0.76718014  -0.16629315  1
  Bi  Bi8  1  0.37013903  0.25846214  -0.15972194  1
