# generated using pymatgen
data_ErAgTe2
_symmetry_space_group_name_H-M   'P 1'
_cell_length_a   4.43276484
_cell_length_b   7.88293345
_cell_length_c   7.59556105
_cell_angle_alpha   101.61770244
_cell_angle_beta   73.43981209
_cell_angle_gamma   89.69275167
_symmetry_Int_Tables_number   1
_chemical_formula_structural   ErAgTe2
_chemical_formula_sum   'Er2 Ag2 Te4'
_cell_volume   248.63470558
_cell_formula_units_Z   2
loop_
 _symmetry_equiv_pos_site_id
 _symmetry_equiv_pos_as_xyz
  1  'x, y, z'
loop_
 _atom_site_type_symbol
 _atom_site_label
 _atom_site_symmetry_multiplicity
 _atom_site_fract_x
 _atom_site_fract_y
 _atom_site_fract_z
 _atom_site_occupancy
  Er  Er0  1  0.29306582  0.48231071  -0.03253527  1
  Er  Er1  1  0.52597404  -0.26072341  0.48757194  1
  Ag  Ag2  1  0.21869641  0.14464244  0.13645708  1
  Ag  Ag3  1  -0.05500087  0.28983344  0.65511537  1
  Te  Te4  1  0.40711390  0.10947556  0.73555636  1
  Te  Te5  1  0.89458386  0.64974188  0.75819584  1
  Te  Te6  1  0.14300528  0.83386265  0.24996251  1
  Te  Te7  1  0.66723155  0.38213672  0.22871617  1
