# generated using pymatgen
data_ErCl3
_symmetry_space_group_name_H-M   'P 1'
_cell_length_a   7.64415143
_cell_length_b   10.26067769
_cell_length_c   3.68546393
_cell_angle_alpha   87.97492691
_cell_angle_beta   91.66241089
_cell_angle_gamma   111.33529273
_symmetry_Int_Tables_number   1
_chemical_formula_structural   ErCl3
_chemical_formula_sum   'Er2 Cl6'
_cell_volume   269.04714182
_cell_formula_units_Z   2
loop_
 _symmetry_equiv_pos_site_id
 _symmetry_equiv_pos_as_xyz
  1  'x, y, z'
loop_
 _atom_site_type_symbol
 _atom_site_label
 _atom_site_symmetry_multiplicity
 _atom_site_fract_x
 _atom_site_fract_y
 _atom_site_fract_z
 _atom_site_occupancy
  Er  Er0  1  0.46912841  0.82382005  0.63015630  1
  Er  Er1  1  0.42849706  0.40700203  0.17933473  1
  Cl  Cl2  1  0.26127660  0.52437549  0.65381184  1
  Cl  Cl3  1  0.64102561  0.72499240  0.15194477  1
  Cl  Cl4  1  0.23315822  0.83012287  0.11441893  1
  Cl  Cl5  1  0.69224160  0.45593458  0.69159092  1
  Cl  Cl6  1  0.27226101  0.21250060  0.68996037  1
  Cl  Cl7  1  0.69058149  0.06112197  0.60803214  1
