# generated using pymatgen
data_ErCuAs2
_symmetry_space_group_name_H-M   'P 1'
_cell_length_a   6.88463735
_cell_length_b   4.18554625
_cell_length_c   8.57295069
_cell_angle_alpha   104.14898578
_cell_angle_beta   55.50254671
_cell_angle_gamma   90.05922466
_symmetry_Int_Tables_number   1
_chemical_formula_structural   ErCuAs2
_chemical_formula_sum   'Er2 Cu2 As4'
_cell_volume   194.47979997
_cell_formula_units_Z   2
loop_
 _symmetry_equiv_pos_site_id
 _symmetry_equiv_pos_as_xyz
  1  'x, y, z'
loop_
 _atom_site_type_symbol
 _atom_site_label
 _atom_site_symmetry_multiplicity
 _atom_site_fract_x
 _atom_site_fract_y
 _atom_site_fract_z
 _atom_site_occupancy
  Er  Er0  1  -0.05594895  0.60680540  0.70453089  1
  Er  Er1  1  0.85085825  -0.16298979  0.16409554  1
  Cu  Cu2  1  0.50742292  0.44288041  0.37494696  1
  Cu  Cu3  1  0.00081111  -0.03154748  0.42616180  1
  As  As4  1  0.13606720  0.18694129  -0.13679783  1
  As  As5  1  0.69155598  0.25714402  0.00659132  1
  As  As6  1  -0.14551875  0.45882617  0.40738648  1
  As  As7  1  0.29864224  0.00321998  0.49612483  1
