# generated using pymatgen
data_ErCu2
_symmetry_space_group_name_H-M   'P 1'
_cell_length_a   4.88880044
_cell_length_b   4.91964448
_cell_length_c   6.15075722
_cell_angle_alpha   75.05418338
_cell_angle_beta   74.86671482
_cell_angle_gamma   50.39173222
_symmetry_Int_Tables_number   1
_chemical_formula_structural   ErCu2
_chemical_formula_sum   'Er2 Cu4'
_cell_volume   109.18298777
_cell_formula_units_Z   2
loop_
 _symmetry_equiv_pos_site_id
 _symmetry_equiv_pos_as_xyz
  1  'x, y, z'
loop_
 _atom_site_type_symbol
 _atom_site_label
 _atom_site_symmetry_multiplicity
 _atom_site_fract_x
 _atom_site_fract_y
 _atom_site_fract_z
 _atom_site_occupancy
  Er  Er0  1  0.45692983  0.43000525  0.64112485  1
  Er  Er1  1  0.69595042  0.67600809  0.08178890  1
  Cu  Cu2  1  0.96371636  -0.04292606  0.24338338  1
  Cu  Cu3  1  0.10852089  1.08677521  0.81943845  1
  Cu  Cu4  1  0.76163913  0.73867200  0.59713174  1
  Cu  Cu5  1  0.22337336  0.20011551  0.38828268  1
