# generated using pymatgen
data_ErGaTc2
_symmetry_space_group_name_H-M   'P 1'
_cell_length_a   6.10368010
_cell_length_b   4.98719319
_cell_length_c   6.10019780
_cell_angle_alpha   51.15449042
_cell_angle_beta   32.41190217
_cell_angle_gamma   51.15554267
_symmetry_Int_Tables_number   1
_chemical_formula_structural   ErGaTc2
_chemical_formula_sum   'Er1 Ga1 Tc2'
_cell_volume   75.36606288
_cell_formula_units_Z   1
loop_
 _symmetry_equiv_pos_site_id
 _symmetry_equiv_pos_as_xyz
  1  'x, y, z'
loop_
 _atom_site_type_symbol
 _atom_site_label
 _atom_site_symmetry_multiplicity
 _atom_site_fract_x
 _atom_site_fract_y
 _atom_site_fract_z
 _atom_site_occupancy
  Er  Er0  1  0.24849912  0.27788994  0.23768574  1
  Ga  Ga1  1  0.74868686  0.77782357  0.73767806  1
  Tc  Tc2  1  0.01136739  0.09263516  -0.00070809  1
  Tc  Tc3  1  0.48575663  0.46279133  0.47599428  1
