# generated using pymatgen
data_ErMgSn
_symmetry_space_group_name_H-M   'P 1'
_cell_length_a   11.26600991
_cell_length_b   10.17428896
_cell_length_c   9.61859914
_cell_angle_alpha   160.22151634
_cell_angle_beta   148.97514426
_cell_angle_gamma   45.32766482
_symmetry_Int_Tables_number   1
_chemical_formula_structural   ErMgSn
_chemical_formula_sum   'Er2 Mg2 Sn2'
_cell_volume   154.89769257
_cell_formula_units_Z   2
loop_
 _symmetry_equiv_pos_site_id
 _symmetry_equiv_pos_as_xyz
  1  'x, y, z'
loop_
 _atom_site_type_symbol
 _atom_site_label
 _atom_site_symmetry_multiplicity
 _atom_site_fract_x
 _atom_site_fract_y
 _atom_site_fract_z
 _atom_site_occupancy
  Er  Er0  1  0.47884996  0.63452898  -0.10530056  1
  Er  Er1  1  0.47792772  0.62559427  0.51378596  1
  Mg  Mg2  1  -0.02084772  0.63296731  0.20850083  1
  Mg  Mg3  1  0.47899169  0.11229152  0.68746761  1
  Sn  Sn4  1  -0.02102544  -0.36748035  -0.47735691  1
  Sn  Sn5  1  0.97871380  0.63220827  -0.10764693  1
