# generated using pymatgen
data_ErMg2H
_symmetry_space_group_name_H-M   'P 1'
_cell_length_a   6.10644958
_cell_length_b   5.06484700
_cell_length_c   3.47471701
_cell_angle_alpha   89.98115300
_cell_angle_beta   55.76368613
_cell_angle_gamma   64.27110348
_symmetry_Int_Tables_number   1
_chemical_formula_structural   ErMg2H
_chemical_formula_sum   'Er1 Mg2 H1'
_cell_volume   75.62329758
_cell_formula_units_Z   1
loop_
 _symmetry_equiv_pos_site_id
 _symmetry_equiv_pos_as_xyz
  1  'x, y, z'
loop_
 _atom_site_type_symbol
 _atom_site_label
 _atom_site_symmetry_multiplicity
 _atom_site_fract_x
 _atom_site_fract_y
 _atom_site_fract_z
 _atom_site_occupancy
  Er  Er0  1  0.28613323  0.28867688  0.24301420  1
  Mg  Mg1  1  -0.04718679  -0.04351107  0.07580512  1
  Mg  Mg2  1  0.61839496  0.62180059  0.41059061  1
  H  H3  1  0.78468860  0.79107360  0.74693007  1
