# generated using pymatgen
data_ErRh2Pb
_symmetry_space_group_name_H-M   'P 1'
_cell_length_a   3.83358763
_cell_length_b   5.42642037
_cell_length_c   6.82133203
_cell_angle_alpha   42.50377902
_cell_angle_beta   62.70984697
_cell_angle_gamma   50.42727834
_symmetry_Int_Tables_number   1
_chemical_formula_structural   ErRh2Pb
_chemical_formula_sum   'Er1 Rh2 Pb1'
_cell_volume   73.88459861
_cell_formula_units_Z   1
loop_
 _symmetry_equiv_pos_site_id
 _symmetry_equiv_pos_as_xyz
  1  'x, y, z'
loop_
 _atom_site_type_symbol
 _atom_site_label
 _atom_site_symmetry_multiplicity
 _atom_site_fract_x
 _atom_site_fract_y
 _atom_site_fract_z
 _atom_site_occupancy
  Er  Er0  1  0.57921888  -0.10030757  0.34770726  1
  Rh  Rh1  1  0.08193332  0.39964989  -0.15119335  1
  Rh  Rh2  1  0.57919693  0.39779025  0.35015700  1
  Pb  Pb3  1  0.08558087  -0.10107258  0.84792909  1
