# generated using pymatgen
data_FeP
_symmetry_space_group_name_H-M   'P 1'
_cell_length_a   2.75341631
_cell_length_b   6.01064346
_cell_length_c   7.52315152
_cell_angle_alpha   65.48102054
_cell_angle_beta   89.92304484
_cell_angle_gamma   89.97295971
_symmetry_Int_Tables_number   1
_chemical_formula_structural   FeP
_chemical_formula_sum   'Fe4 P4'
_cell_volume   113.27904573
_cell_formula_units_Z   4
loop_
 _symmetry_equiv_pos_site_id
 _symmetry_equiv_pos_as_xyz
  1  'x, y, z'
loop_
 _atom_site_type_symbol
 _atom_site_label
 _atom_site_symmetry_multiplicity
 _atom_site_fract_x
 _atom_site_fract_y
 _atom_site_fract_z
 _atom_site_occupancy
  Fe  Fe0  1  0.17104529  0.59364843  0.58982156  1
  Fe  Fe1  1  0.67224161  0.39711634  0.39789135  1
  Fe  Fe2  1  0.17079552  0.06689853  0.33005227  1
  Fe  Fe3  1  0.67211727  0.92368890  0.65744033  1
  P  P4  1  0.17128664  0.63504499  0.86400250  1
  P  P5  1  0.67037201  0.35568239  0.12373127  1
  P  P6  1  0.17181806  0.21282658  0.65194504  1
  P  P7  1  0.67134360  0.77777385  0.33548570  1
