# generated using pymatgen
data_GaPPd5
_symmetry_space_group_name_H-M   'P 1'
_cell_length_a   4.09405091
_cell_length_b   3.88215614
_cell_length_c   7.94172677
_cell_angle_alpha   60.88547798
_cell_angle_beta   89.68319700
_cell_angle_gamma   90.01905311
_symmetry_Int_Tables_number   1
_chemical_formula_structural   GaPPd5
_chemical_formula_sum   'Ga1 P1 Pd5'
_cell_volume   110.27292367
_cell_formula_units_Z   1
loop_
 _symmetry_equiv_pos_site_id
 _symmetry_equiv_pos_as_xyz
  1  'x, y, z'
loop_
 _atom_site_type_symbol
 _atom_site_label
 _atom_site_symmetry_multiplicity
 _atom_site_fract_x
 _atom_site_fract_y
 _atom_site_fract_z
 _atom_site_occupancy
  Ga  Ga0  1  0.44514708  0.43574772  -0.04973393  1
  P  P1  1  -0.04729428  0.14060383  0.23906824  1
  Pd  Pd2  1  -0.04926135  0.44939551  0.43141786  1
  Pd  Pd3  1  -0.05287386  0.66030790  0.72241244  1
  Pd  Pd4  1  0.45077277  -0.03100687  0.41285587  1
  Pd  Pd5  1  0.44647233  0.16232133  0.72226803  1
  Pd  Pd6  1  -0.05944270  -0.14651942  0.02589149  1
