# generated using pymatgen
data_GaPt
_symmetry_space_group_name_H-M   'P 1'
_cell_length_a   6.46722755
_cell_length_b   5.52278570
_cell_length_c   4.17863169
_cell_angle_alpha   89.94878513
_cell_angle_beta   89.93913669
_cell_angle_gamma   65.89812221
_symmetry_Int_Tables_number   1
_chemical_formula_structural   GaPt
_chemical_formula_sum   'Ga4 Pt4'
_cell_volume   136.23718192
_cell_formula_units_Z   4
loop_
 _symmetry_equiv_pos_site_id
 _symmetry_equiv_pos_as_xyz
  1  'x, y, z'
loop_
 _atom_site_type_symbol
 _atom_site_label
 _atom_site_symmetry_multiplicity
 _atom_site_fract_x
 _atom_site_fract_y
 _atom_site_fract_z
 _atom_site_occupancy
  Ga  Ga0  1  0.35529344  0.16125760  -0.15980900  1
  Ga  Ga1  1  0.13237240  0.77662988  0.34344137  1
  Ga  Ga2  1  0.90975638  0.38080989  0.34311816  1
  Ga  Ga3  1  0.57820654  0.55601512  0.84053981  1
  Pt  Pt4  1  0.50854481  0.33241450  0.34043740  1
  Pt  Pt5  1  -0.02067627  0.60428152  0.84323157  1
  Pt  Pt6  1  0.51437888  0.84461677  0.34020768  1
  Pt  Pt7  1  0.97416383  0.09181471  0.84326301  1
