# generated using pymatgen
data_H2IrPd
_symmetry_space_group_name_H-M   'P 1'
_cell_length_a   3.54040446
_cell_length_b   2.87467621
_cell_length_c   4.89427120
_cell_angle_alpha   67.00848139
_cell_angle_beta   71.09895142
_cell_angle_gamma   53.39750729
_symmetry_Int_Tables_number   1
_chemical_formula_structural   H2IrPd
_chemical_formula_sum   'H2 Ir1 Pd1'
_cell_volume   36.53132638
_cell_formula_units_Z   1
loop_
 _symmetry_equiv_pos_site_id
 _symmetry_equiv_pos_as_xyz
  1  'x, y, z'
loop_
 _atom_site_type_symbol
 _atom_site_label
 _atom_site_symmetry_multiplicity
 _atom_site_fract_x
 _atom_site_fract_y
 _atom_site_fract_z
 _atom_site_occupancy
  H  H0  1  0.20519594  0.28422255  0.32100673  1
  H  H1  1  0.66092999  0.76452250  0.69635952  1
  Ir  Ir2  1  0.59682231  0.47486714  0.44985978  1
  Pd  Pd3  1  0.08588176  -0.02531218  -0.04039603  1
