# generated using pymatgen
data_H2Se
_symmetry_space_group_name_H-M   'P 1'
_cell_length_a   4.13304326
_cell_length_b   5.19344619
_cell_length_c   4.59879205
_cell_angle_alpha   61.30292346
_cell_angle_beta   104.58671798
_cell_angle_gamma   128.94607666
_symmetry_Int_Tables_number   1
_chemical_formula_structural   H2Se
_chemical_formula_sum   'H2 Se1'
_cell_volume   67.16107149
_cell_formula_units_Z   1
loop_
 _symmetry_equiv_pos_site_id
 _symmetry_equiv_pos_as_xyz
  1  'x, y, z'
loop_
 _atom_site_type_symbol
 _atom_site_label
 _atom_site_symmetry_multiplicity
 _atom_site_fract_x
 _atom_site_fract_y
 _atom_site_fract_z
 _atom_site_occupancy
  H  H0  1  0.06091036  -0.04116832  0.06254827  1
  H  H1  1  0.03034945  0.53527093  0.06567136  1
  Se  Se2  1  0.78654019  0.55194738  0.23620037  1
