# generated using pymatgen
data_Hf2Fe
_symmetry_space_group_name_H-M   'P 1'
_cell_length_a   4.35432211
_cell_length_b   4.36406159
_cell_length_c   4.38404347
_cell_angle_alpha   59.78928147
_cell_angle_beta   59.72415751
_cell_angle_gamma   59.50910062
_symmetry_Int_Tables_number   1
_chemical_formula_structural   Hf2Fe
_chemical_formula_sum   'Hf2 Fe1'
_cell_volume   58.47077806
_cell_formula_units_Z   1
loop_
 _symmetry_equiv_pos_site_id
 _symmetry_equiv_pos_as_xyz
  1  'x, y, z'
loop_
 _atom_site_type_symbol
 _atom_site_label
 _atom_site_symmetry_multiplicity
 _atom_site_fract_x
 _atom_site_fract_y
 _atom_site_fract_z
 _atom_site_occupancy
  Hf  Hf0  1  0.26503975  0.27512416  0.25523095  1
  Hf  Hf1  1  0.76491137  0.77549879  0.75471544  1
  Fe  Fe2  1  0.51509888  0.52486704  0.50582361  1
