# generated using pymatgen
data_Hf2TcIr
_symmetry_space_group_name_H-M   'P 1'
_cell_length_a   3.32038572
_cell_length_b   4.57075583
_cell_length_c   5.64066369
_cell_angle_alpha   89.80676569
_cell_angle_beta   54.13500689
_cell_angle_gamma   89.78363599
_symmetry_Int_Tables_number   1
_chemical_formula_structural   Hf2TcIr
_chemical_formula_sum   'Hf2 Tc1 Ir1'
_cell_volume   69.37492478
_cell_formula_units_Z   1
loop_
 _symmetry_equiv_pos_site_id
 _symmetry_equiv_pos_as_xyz
  1  'x, y, z'
loop_
 _atom_site_type_symbol
 _atom_site_label
 _atom_site_symmetry_multiplicity
 _atom_site_fract_x
 _atom_site_fract_y
 _atom_site_fract_z
 _atom_site_occupancy
  Hf  Hf0  1  0.13012432  0.11920813  0.42780030  1
  Hf  Hf1  1  0.62835540  0.61873372  0.92754655  1
  Tc  Tc2  1  0.12899307  0.11870131  -0.07207982  1
  Ir  Ir3  1  0.62925722  0.61908684  0.42761296  1
