# generated using pymatgen
data_Hf3N2
_symmetry_space_group_name_H-M   'P 1'
_cell_length_a   3.22363122
_cell_length_b   3.13592765
_cell_length_c   8.39587855
_cell_angle_alpha   56.29262064
_cell_angle_beta   78.44063974
_cell_angle_gamma   89.18855928
_symmetry_Int_Tables_number   1
_chemical_formula_structural   Hf3N2
_chemical_formula_sum   'Hf3 N2'
_cell_volume   68.68153526
_cell_formula_units_Z   1
loop_
 _symmetry_equiv_pos_site_id
 _symmetry_equiv_pos_as_xyz
  1  'x, y, z'
loop_
 _atom_site_type_symbol
 _atom_site_label
 _atom_site_symmetry_multiplicity
 _atom_site_fract_x
 _atom_site_fract_y
 _atom_site_fract_z
 _atom_site_occupancy
  Hf  Hf0  1  0.34262912  0.02941278  0.35711816  1
  Hf  Hf1  1  0.68002671  0.04983038  0.67843656  1
  Hf  Hf2  1  0.01133115  0.03910523  0.01758355  1
  N  N3  1  0.17756542  0.54317845  0.68269269  1
  N  N4  1  0.84509760  0.53643316  0.35265904  1
