# generated using pymatgen
data_Hf5Sc
_symmetry_space_group_name_H-M   'P 1'
_cell_length_a   5.54957176
_cell_length_b   7.86431226
_cell_length_c   3.20640264
_cell_angle_alpha   90.02484639
_cell_angle_beta   89.98203740
_cell_angle_gamma   103.61648051
_symmetry_Int_Tables_number   1
_chemical_formula_structural   Hf5Sc
_chemical_formula_sum   'Hf5 Sc1'
_cell_volume   136.00561128
_cell_formula_units_Z   1
loop_
 _symmetry_equiv_pos_site_id
 _symmetry_equiv_pos_as_xyz
  1  'x, y, z'
loop_
 _atom_site_type_symbol
 _atom_site_label
 _atom_site_symmetry_multiplicity
 _atom_site_fract_x
 _atom_site_fract_y
 _atom_site_fract_z
 _atom_site_occupancy
  Hf  Hf0  1  0.59318911  -0.01873360  -0.05446096  1
  Hf  Hf1  1  0.81532952  0.64508328  -0.05463445  1
  Hf  Hf2  1  0.37315273  0.31858295  -0.05408298  1
  Hf  Hf3  1  0.31711970  0.64457302  0.44550629  1
  Hf  Hf4  1  0.86919827  0.31909952  0.44595435  1
  Sc  Sc5  1  0.09575067  -0.01751517  0.44565776  1
