# generated using pymatgen
data_HfBrN
_symmetry_space_group_name_H-M   'P 1'
_cell_length_a   6.29684582
_cell_length_b   3.71667473
_cell_length_c   6.81235139
_cell_angle_alpha   72.30071580
_cell_angle_beta   72.74474948
_cell_angle_gamma   88.65120570
_symmetry_Int_Tables_number   1
_chemical_formula_structural   HfBrN
_chemical_formula_sum   'Hf2 Br2 N2'
_cell_volume   144.65944454
_cell_formula_units_Z   2
loop_
 _symmetry_equiv_pos_site_id
 _symmetry_equiv_pos_as_xyz
  1  'x, y, z'
loop_
 _atom_site_type_symbol
 _atom_site_label
 _atom_site_symmetry_multiplicity
 _atom_site_fract_x
 _atom_site_fract_y
 _atom_site_fract_z
 _atom_site_occupancy
  Hf  Hf0  1  0.96124877  0.12229540  0.20601717  1
  Hf  Hf1  1  0.03596625  0.82820718  0.81930196  1
  Br  Br2  1  0.70421420  0.83532888  0.65761776  1
  Br  Br3  1  0.29240846  0.11895768  0.36872092  1
  N  N4  1  0.85814738  0.65829298  0.14093981  1
  N  N5  1  0.13869495  0.29213788  0.88451239  1
