# generated using pymatgen
data_HfCd
_symmetry_space_group_name_H-M   'P 1'
_cell_length_a   3.20456766
_cell_length_b   4.49056476
_cell_length_c   6.27554028
_cell_angle_alpha   90.00589567
_cell_angle_beta   75.92488070
_cell_angle_gamma   89.97878240
_symmetry_Int_Tables_number   1
_chemical_formula_structural   HfCd
_chemical_formula_sum   'Hf2 Cd2'
_cell_volume   87.59579275
_cell_formula_units_Z   2
loop_
 _symmetry_equiv_pos_site_id
 _symmetry_equiv_pos_as_xyz
  1  'x, y, z'
loop_
 _atom_site_type_symbol
 _atom_site_label
 _atom_site_symmetry_multiplicity
 _atom_site_fract_x
 _atom_site_fract_y
 _atom_site_fract_z
 _atom_site_occupancy
  Hf  Hf0  1  0.74166985  0.71203036  0.83931697  1
  Hf  Hf1  1  0.11415716  0.21144542  0.10073583  1
  Cd  Cd2  1  0.50298366  0.71197777  0.33275549  1
  Cd  Cd3  1  0.35511934  0.21161645  0.60750171  1
