# generated using pymatgen
data_HfZrN2
_symmetry_space_group_name_H-M   'P 1'
_cell_length_a   5.75526076
_cell_length_b   6.58214310
_cell_length_c   6.60647942
_cell_angle_alpha   28.60717295
_cell_angle_beta   29.25301955
_cell_angle_gamma   29.74740771
_symmetry_Int_Tables_number   1
_chemical_formula_structural   HfZrN2
_chemical_formula_sum   'Hf1 Zr1 N2'
_cell_volume   52.66733550
_cell_formula_units_Z   1
loop_
 _symmetry_equiv_pos_site_id
 _symmetry_equiv_pos_as_xyz
  1  'x, y, z'
loop_
 _atom_site_type_symbol
 _atom_site_label
 _atom_site_symmetry_multiplicity
 _atom_site_fract_x
 _atom_site_fract_y
 _atom_site_fract_z
 _atom_site_occupancy
  Hf  Hf0  1  0.09904170  -0.00343923  -0.04558284  1
  Zr  Zr1  1  0.30597890  0.65294261  0.62756372  1
  N  N2  1  0.21400063  0.32349198  0.29188382  1
  N  N3  1  -0.05145124  0.66595464  0.61902529  1
