# generated using pymatgen
data_HfZrC
_symmetry_space_group_name_H-M   'P 1'
_cell_length_a   8.57953387
_cell_length_b   6.42862153
_cell_length_c   10.27277477
_cell_angle_alpha   18.37253937
_cell_angle_beta   17.48948225
_cell_angle_gamma   19.58660467
_symmetry_Int_Tables_number   1
_chemical_formula_structural   HfZrC
_chemical_formula_sum   'Hf1 Zr1 C1'
_cell_volume   49.41175186
_cell_formula_units_Z   1
loop_
 _symmetry_equiv_pos_site_id
 _symmetry_equiv_pos_as_xyz
  1  'x, y, z'
loop_
 _atom_site_type_symbol
 _atom_site_label
 _atom_site_symmetry_multiplicity
 _atom_site_fract_x
 _atom_site_fract_y
 _atom_site_fract_z
 _atom_site_occupancy
  Hf  Hf0  1  -0.23570116  -0.10553095  0.23696092  1
  Zr  Zr1  1  0.76327930  0.39472205  0.23796185  1
  C  C2  1  0.76425186  0.89371890  0.73765723  1
