# generated using pymatgen
data_HN
_symmetry_space_group_name_H-M   'P 1'
_cell_length_a   3.88836671
_cell_length_b   3.53456613
_cell_length_c   3.01815074
_cell_angle_alpha   34.06070230
_cell_angle_beta   45.84843079
_cell_angle_gamma   30.62798552
_symmetry_Int_Tables_number   1
_chemical_formula_structural   HN
_chemical_formula_sum   'H1 N1'
_cell_volume   11.81647732
_cell_formula_units_Z   1
loop_
 _symmetry_equiv_pos_site_id
 _symmetry_equiv_pos_as_xyz
  1  'x, y, z'
loop_
 _atom_site_type_symbol
 _atom_site_label
 _atom_site_symmetry_multiplicity
 _atom_site_fract_x
 _atom_site_fract_y
 _atom_site_fract_z
 _atom_site_occupancy
  H  H0  1  -0.26019506  0.21998533  0.08888617  1
  N  N1  1  0.79427506  0.18636467  0.41516383  1
