# generated using pymatgen
data_HoAlSi
_symmetry_space_group_name_H-M   'P 1'
_cell_length_a   4.98029651
_cell_length_b   6.31320713
_cell_length_c   6.41975887
_cell_angle_alpha   81.16225831
_cell_angle_beta   101.22597399
_cell_angle_gamma   142.10404988
_symmetry_Int_Tables_number   1
_chemical_formula_structural   HoAlSi
_chemical_formula_sum   'Ho2 Al2 Si2'
_cell_volume   121.60871359
_cell_formula_units_Z   2
loop_
 _symmetry_equiv_pos_site_id
 _symmetry_equiv_pos_as_xyz
  1  'x, y, z'
loop_
 _atom_site_type_symbol
 _atom_site_label
 _atom_site_symmetry_multiplicity
 _atom_site_fract_x
 _atom_site_fract_y
 _atom_site_fract_z
 _atom_site_occupancy
  Ho  Ho0  1  0.80256962  0.39214893  0.37948590  1
  Ho  Ho1  1  0.42811704  0.89190191  0.82134969  1
  Al  Al2  1  0.00470316  -0.10805361  0.06476831  1
  Al  Al3  1  -0.18321757  -0.10814051  0.45928780  1
  Si  Si4  1  0.22101386  0.39144280  0.13925235  1
  Si  Si5  1  0.40402389  0.39178047  0.74534594  1
