# generated using pymatgen
data_HoHg3
_symmetry_space_group_name_H-M   'P 1'
_cell_length_a   4.75973234
_cell_length_b   7.97258323
_cell_length_c   6.38907255
_cell_angle_alpha   90.15437739
_cell_angle_beta   89.69079106
_cell_angle_gamma   126.74901032
_symmetry_Int_Tables_number   1
_chemical_formula_structural   HoHg3
_chemical_formula_sum   'Ho2 Hg6'
_cell_volume   194.26237867
_cell_formula_units_Z   2
loop_
 _symmetry_equiv_pos_site_id
 _symmetry_equiv_pos_as_xyz
  1  'x, y, z'
loop_
 _atom_site_type_symbol
 _atom_site_label
 _atom_site_symmetry_multiplicity
 _atom_site_fract_x
 _atom_site_fract_y
 _atom_site_fract_z
 _atom_site_occupancy
  Ho  Ho0  1  0.37783357  0.84935534  0.75547201  1
  Ho  Ho1  1  0.87799169  0.34891270  0.25789927  1
  Hg  Hg2  1  0.12804542  0.09844798  0.00536715  1
  Hg  Hg3  1  -0.62222615  -0.15119376  0.25571806  1
  Hg  Hg4  1  0.62870587  0.60070533  0.50547486  1
  Hg  Hg5  1  0.13122926  0.10118746  0.50559517  1
  Hg  Hg6  1  -0.37057685  -0.40050823  0.00477461  1
  Hg  Hg7  1  -0.11991281  0.34944318  0.75908887  1
