# generated using pymatgen
data_HoSi2Ni
_symmetry_space_group_name_H-M   'P 1'
_cell_length_a   3.98739340
_cell_length_b   5.07757293
_cell_length_c   7.81174629
_cell_angle_alpha   103.10792298
_cell_angle_beta   76.00797368
_cell_angle_gamma   69.75290865
_symmetry_Int_Tables_number   1
_chemical_formula_structural   HoSi2Ni
_chemical_formula_sum   'Ho2 Si4 Ni2'
_cell_volume   135.35202070
_cell_formula_units_Z   2
loop_
 _symmetry_equiv_pos_site_id
 _symmetry_equiv_pos_as_xyz
  1  'x, y, z'
loop_
 _atom_site_type_symbol
 _atom_site_label
 _atom_site_symmetry_multiplicity
 _atom_site_fract_x
 _atom_site_fract_y
 _atom_site_fract_z
 _atom_site_occupancy
  Ho  Ho0  1  -0.31293338  0.43560109  0.75520241  1
  Ho  Ho1  1  0.81646091  -0.14956857  0.09575297  1
  Si  Si2  1  0.42265785  0.26866256  0.44121758  1
  Si  Si3  1  0.06746255  0.77883582  0.65575897  1
  Si  Si4  1  0.21232652  0.18116867  0.95610042  1
  Si  Si5  1  0.45400868  0.46908625  0.17212055  1
  Ni  Ni6  1  0.49908309  -0.03769654  0.62037330  1
  Ni  Ni7  1  0.09361378  0.96028070  0.40258379  1
