# generated using pymatgen
data_InF3
_symmetry_space_group_name_H-M   'P 1'
_cell_length_a   5.45516972
_cell_length_b   5.44572107
_cell_length_c   6.32445974
_cell_angle_alpha   54.97044757
_cell_angle_beta   66.55435119
_cell_angle_gamma   68.45301593
_symmetry_Int_Tables_number   1
_chemical_formula_structural   InF3
_chemical_formula_sum   'In2 F6'
_cell_volume   138.71400795
_cell_formula_units_Z   2
loop_
 _symmetry_equiv_pos_site_id
 _symmetry_equiv_pos_as_xyz
  1  'x, y, z'
loop_
 _atom_site_type_symbol
 _atom_site_label
 _atom_site_symmetry_multiplicity
 _atom_site_fract_x
 _atom_site_fract_y
 _atom_site_fract_z
 _atom_site_occupancy
  In  In0  1  0.50508985  0.62613827  0.61202234  1
  In  In1  1  0.01605029  -0.01853960  0.10380742  1
  F  F2  1  0.30814297  0.76176714  -0.10103875  1
  F  F3  1  0.69673105  0.00924768  0.42485462  1
  F  F4  1  0.84014624  0.58375296  0.30659854  1
  F  F5  1  0.27369715  0.88602714  0.32538877  1
  F  F6  1  0.72907535  0.23310621  0.87091252  1
  F  F7  1  0.19894709  0.36504020  0.80493454  1
