# generated using pymatgen
data_InNi4H
_symmetry_space_group_name_H-M   'P 1'
_cell_length_a   3.79670245
_cell_length_b   4.44570680
_cell_length_c   4.65116276
_cell_angle_alpha   81.25833364
_cell_angle_beta   66.19371393
_cell_angle_gamma   64.65692726
_symmetry_Int_Tables_number   1
_chemical_formula_structural   InNi4H
_chemical_formula_sum   'In1 Ni4 H1'
_cell_volume   64.89422659
_cell_formula_units_Z   1
loop_
 _symmetry_equiv_pos_site_id
 _symmetry_equiv_pos_as_xyz
  1  'x, y, z'
loop_
 _atom_site_type_symbol
 _atom_site_label
 _atom_site_symmetry_multiplicity
 _atom_site_fract_x
 _atom_site_fract_y
 _atom_site_fract_z
 _atom_site_occupancy
  In  In0  1  0.16597124  0.02293705  0.05008988  1
  Ni  Ni1  1  0.57508059  0.81602390  0.44131388  1
  Ni  Ni2  1  0.36695222  0.43092329  0.23809540  1
  Ni  Ni3  1  0.76245602  0.24572691  0.63916959  1
  Ni  Ni4  1  -0.01671997  0.62672548  0.81531712  1
  H  H5  1  0.33448990  0.25230338  0.56842414  1
