# generated using pymatgen
data_InPd2Au
_symmetry_space_group_name_H-M   'P 1'
_cell_length_a   5.75548769
_cell_length_b   4.10189668
_cell_length_c   5.03346851
_cell_angle_alpha   66.09348320
_cell_angle_beta   55.23557764
_cell_angle_gamma   44.60688979
_symmetry_Int_Tables_number   1
_chemical_formula_structural   InPd2Au
_chemical_formula_sum   'In1 Pd2 Au1'
_cell_volume   68.55324246
_cell_formula_units_Z   1
loop_
 _symmetry_equiv_pos_site_id
 _symmetry_equiv_pos_as_xyz
  1  'x, y, z'
loop_
 _atom_site_type_symbol
 _atom_site_label
 _atom_site_symmetry_multiplicity
 _atom_site_fract_x
 _atom_site_fract_y
 _atom_site_fract_z
 _atom_site_occupancy
  In  In0  1  0.45293629  0.81436860  0.84866748  1
  Pd  Pd1  1  -0.04695665  -0.18466344  -0.15204912  1
  Pd  Pd2  1  0.70437800  0.31515395  0.34552445  1
  Au  Au3  1  0.20204236  0.31495090  0.35001719  1
