# generated using pymatgen
data_InPt3
_symmetry_space_group_name_H-M   'P 1'
_cell_length_a   4.12642501
_cell_length_b   4.12474781
_cell_length_c   4.88863161
_cell_angle_alpha   114.85681706
_cell_angle_beta   114.88769840
_cell_angle_gamma   90.06850063
_symmetry_Int_Tables_number   1
_chemical_formula_structural   InPt3
_chemical_formula_sum   'In1 Pt3'
_cell_volume   66.86493840
_cell_formula_units_Z   1
loop_
 _symmetry_equiv_pos_site_id
 _symmetry_equiv_pos_as_xyz
  1  'x, y, z'
loop_
 _atom_site_type_symbol
 _atom_site_label
 _atom_site_symmetry_multiplicity
 _atom_site_fract_x
 _atom_site_fract_y
 _atom_site_fract_z
 _atom_site_occupancy
  In  In0  1  -0.16361815  -0.14509159  -0.08864486  1
  Pt  Pt1  1  0.08711498  0.60584124  0.41159432  1
  Pt  Pt2  1  0.58657786  0.10427101  0.41110749  1
  Pt  Pt3  1  0.33643531  0.35509934  -0.08863695  1
