# generated using pymatgen
data_InSiPt5
_symmetry_space_group_name_H-M   'P 1'
_cell_length_a   5.25046531
_cell_length_b   3.67900546
_cell_length_c   11.43903457
_cell_angle_alpha   118.01748618
_cell_angle_beta   37.33870581
_cell_angle_gamma   109.89548993
_symmetry_Int_Tables_number   1
_chemical_formula_structural   InSiPt5
_chemical_formula_sum   'In1 Si1 Pt5'
_cell_volume   118.08543266
_cell_formula_units_Z   1
loop_
 _symmetry_equiv_pos_site_id
 _symmetry_equiv_pos_as_xyz
  1  'x, y, z'
loop_
 _atom_site_type_symbol
 _atom_site_label
 _atom_site_symmetry_multiplicity
 _atom_site_fract_x
 _atom_site_fract_y
 _atom_site_fract_z
 _atom_site_occupancy
  In  In0  1  0.45555551  0.95806079  -0.08930884  1
  Si  Si1  1  0.05496922  0.02819483  0.42716804  1
  Pt  Pt2  1  -0.04593197  0.31282410  0.31463640  1
  Pt  Pt3  1  0.10609994  0.38590812  0.64317398  1
  Pt  Pt4  1  0.53296165  -0.41071638  0.30675482  1
  Pt  Pt5  1  0.33098913  0.16483460  0.75523939  1
  Pt  Pt6  1  -0.32637347  -0.22867606  0.04590620  1
