# generated using pymatgen
data_Ir3Ru
_symmetry_space_group_name_H-M   'P 1'
_cell_length_a   4.75553944
_cell_length_b   7.03437554
_cell_length_c   5.49112551
_cell_angle_alpha   141.29048532
_cell_angle_beta   150.02158720
_cell_angle_gamma   47.49530284
_symmetry_Int_Tables_number   1
_chemical_formula_structural   Ir3Ru
_chemical_formula_sum   'Ir3 Ru1'
_cell_volume   57.39996252
_cell_formula_units_Z   1
loop_
 _symmetry_equiv_pos_site_id
 _symmetry_equiv_pos_as_xyz
  1  'x, y, z'
loop_
 _atom_site_type_symbol
 _atom_site_label
 _atom_site_symmetry_multiplicity
 _atom_site_fract_x
 _atom_site_fract_y
 _atom_site_fract_z
 _atom_site_occupancy
  Ir  Ir0  1  0.88743790  0.33168584  0.48755358  1
  Ir  Ir1  1  0.21992104  0.83168747  0.48884795  1
  Ir  Ir2  1  -0.11625064  0.33176041  -0.01375933  1
  Ru  Ru3  1  0.21848170  -0.16816371  -0.01294220  1
