# generated using pymatgen
data_K2CdPb
_symmetry_space_group_name_H-M   'P 1'
_cell_length_a   7.80101540
_cell_length_b   7.02158508
_cell_length_c   6.78978886
_cell_angle_alpha   107.15784434
_cell_angle_beta   88.11468282
_cell_angle_gamma   111.33859453
_symmetry_Int_Tables_number   1
_chemical_formula_structural   K2CdPb
_chemical_formula_sum   'K4 Cd2 Pb2'
_cell_volume   329.84079878
_cell_formula_units_Z   2
loop_
 _symmetry_equiv_pos_site_id
 _symmetry_equiv_pos_as_xyz
  1  'x, y, z'
loop_
 _atom_site_type_symbol
 _atom_site_label
 _atom_site_symmetry_multiplicity
 _atom_site_fract_x
 _atom_site_fract_y
 _atom_site_fract_z
 _atom_site_occupancy
  K  K0  1  0.34757863  0.67295831  0.17959398  1
  K  K1  1  0.88086616  0.95757775  0.28793379  1
  K  K2  1  0.25908044  0.02329606  0.78591848  1
  K  K3  1  0.79227364  0.30784624  0.88635546  1
  Cd  Cd4  1  -0.08649322  0.52469150  0.46726993  1
  Cd  Cd5  1  0.23474494  0.45767478  0.59786739  1
  Pb  Pb6  1  0.50544337  0.27166022  0.34116458  1
  Pb  Pb7  1  0.64155605  0.70644514  0.72834638  1
