# generated using pymatgen
data_K2H6Pt
_symmetry_space_group_name_H-M   'P 1'
_cell_length_a   5.70201786
_cell_length_b   5.69515767
_cell_length_c   5.94194842
_cell_angle_alpha   58.88314360
_cell_angle_beta   59.24011924
_cell_angle_gamma   62.48216844
_symmetry_Int_Tables_number   1
_chemical_formula_structural   K2H6Pt
_chemical_formula_sum   'K2 H6 Pt1'
_cell_volume   136.73169927
_cell_formula_units_Z   1
loop_
 _symmetry_equiv_pos_site_id
 _symmetry_equiv_pos_as_xyz
  1  'x, y, z'
loop_
 _atom_site_type_symbol
 _atom_site_label
 _atom_site_symmetry_multiplicity
 _atom_site_fract_x
 _atom_site_fract_y
 _atom_site_fract_z
 _atom_site_occupancy
  K  K0  1  0.65483989  0.80981863  0.83635974  1
  K  K1  1  0.15446360  0.30995727  0.33772826  1
  H  H2  1  0.29638809  0.44201623  0.70016080  1
  H  H3  1  0.19445509  0.34274147  0.80088962  1
  H  H4  1  0.10307536  0.85848904  0.28635815  1
  H  H5  1  0.70371513  0.25461627  0.28712626  1
  H  H6  1  0.10243163  0.85979944  -0.10851909  1
  H  H7  1  0.70370651  0.25584874  0.89202402  1
  Pt  Pt8  1  -0.09528529  0.05875290  0.08781224  1
