# generated using pymatgen
data_K5Sb4
_symmetry_space_group_name_H-M   'P 1'
_cell_length_a   6.79950295
_cell_length_b   6.04839701
_cell_length_c   11.42599887
_cell_angle_alpha   74.05885493
_cell_angle_beta   104.52167671
_cell_angle_gamma   63.01325207
_symmetry_Int_Tables_number   1
_chemical_formula_structural   K5Sb4
_chemical_formula_sum   'K5 Sb4'
_cell_volume   361.94152755
_cell_formula_units_Z   1
loop_
 _symmetry_equiv_pos_site_id
 _symmetry_equiv_pos_as_xyz
  1  'x, y, z'
loop_
 _atom_site_type_symbol
 _atom_site_label
 _atom_site_symmetry_multiplicity
 _atom_site_fract_x
 _atom_site_fract_y
 _atom_site_fract_z
 _atom_site_occupancy
  K  K0  1  0.94548121  0.81125584  0.35012608  1
  K  K1  1  0.06328526  0.09374501  0.65452698  1
  K  K2  1  0.25882957  0.21643649  0.24642724  1
  K  K3  1  0.73077220  0.72718496  0.71412865  1
  K  K4  1  -0.01686157  -0.02399580  -0.00241238  1
  Sb  Sb5  1  0.59990300  0.64377648  0.05667665  1
  Sb  Sb6  1  0.38041409  0.25364261  0.94659158  1
  Sb  Sb7  1  0.57812470  0.51850446  0.31388760  1
  Sb  Sb8  1  0.41176153  0.39480994  0.69282760  1
