# generated using pymatgen
data_KLuS2
_symmetry_space_group_name_H-M   'P 1'
_cell_length_a   3.94721011
_cell_length_b   3.93847384
_cell_length_c   8.73172584
_cell_angle_alpha   63.33592361
_cell_angle_beta   89.91135442
_cell_angle_gamma   60.06331731
_symmetry_Int_Tables_number   1
_chemical_formula_structural   KLuS2
_chemical_formula_sum   'K1 Lu1 S2'
_cell_volume   100.69392848
_cell_formula_units_Z   1
loop_
 _symmetry_equiv_pos_site_id
 _symmetry_equiv_pos_as_xyz
  1  'x, y, z'
loop_
 _atom_site_type_symbol
 _atom_site_label
 _atom_site_symmetry_multiplicity
 _atom_site_fract_x
 _atom_site_fract_y
 _atom_site_fract_z
 _atom_site_occupancy
  K  K0  1  -0.10497632  0.66937441  -0.69838111  1
  Lu  Lu1  1  0.55600076  0.34735474  0.79442182  1
  S  S2  1  0.76071198  -0.05901341  0.59834831  1
  S  S3  1  0.35146358  -0.24682575  0.99161099  1
