# generated using pymatgen
data_KMgSb
_symmetry_space_group_name_H-M   'P 1'
_cell_length_a   6.07207597
_cell_length_b   3.55475830
_cell_length_c   8.92102640
_cell_angle_alpha   101.16241706
_cell_angle_beta   90.42563635
_cell_angle_gamma   89.74419526
_symmetry_Int_Tables_number   1
_chemical_formula_structural   KMgSb
_chemical_formula_sum   'K2 Mg2 Sb2'
_cell_volume   188.90937503
_cell_formula_units_Z   2
loop_
 _symmetry_equiv_pos_site_id
 _symmetry_equiv_pos_as_xyz
  1  'x, y, z'
loop_
 _atom_site_type_symbol
 _atom_site_label
 _atom_site_symmetry_multiplicity
 _atom_site_fract_x
 _atom_site_fract_y
 _atom_site_fract_z
 _atom_site_occupancy
  K  K0  1  0.36187060  -0.04507236  0.64854446  1
  K  K1  1  0.85942679  0.80595908  0.38862419  1
  Mg  Mg2  1  0.67384941  0.12954683  0.01314364  1
  Mg  Mg3  1  0.19154140  0.63397271  0.01959988  1
  Sb  Sb4  1  0.36046107  0.25013010  0.26177046  1
  Sb  Sb5  1  0.86190073  0.51775364  0.78156737  1
