# generated using pymatgen
data_KP
_symmetry_space_group_name_H-M   'P 1'
_cell_length_a   5.01969347
_cell_length_b   3.00963127
_cell_length_c   3.06146461
_cell_angle_alpha   90.14291079
_cell_angle_beta   89.94510363
_cell_angle_gamma   89.97539537
_symmetry_Int_Tables_number   1
_chemical_formula_structural   KP
_chemical_formula_sum   'K1 P1'
_cell_volume   46.25068189
_cell_formula_units_Z   1
loop_
 _symmetry_equiv_pos_site_id
 _symmetry_equiv_pos_as_xyz
  1  'x, y, z'
loop_
 _atom_site_type_symbol
 _atom_site_label
 _atom_site_symmetry_multiplicity
 _atom_site_fract_x
 _atom_site_fract_y
 _atom_site_fract_z
 _atom_site_occupancy
  K  K0  1  0.85710312  0.79702572  0.35296814  1
  P  P1  1  0.35750688  0.29416428  0.84815186  1
