# generated using pymatgen
data_KPrS2
_symmetry_space_group_name_H-M   'P 1'
_cell_length_a   5.06831910
_cell_length_b   10.32421678
_cell_length_c   8.54986575
_cell_angle_alpha   34.29142018
_cell_angle_beta   31.00230260
_cell_angle_gamma   44.85836253
_symmetry_Int_Tables_number   1
_chemical_formula_structural   KPrS2
_chemical_formula_sum   'K1 Pr1 S2'
_cell_volume   129.82733702
_cell_formula_units_Z   1
loop_
 _symmetry_equiv_pos_site_id
 _symmetry_equiv_pos_as_xyz
  1  'x, y, z'
loop_
 _atom_site_type_symbol
 _atom_site_label
 _atom_site_symmetry_multiplicity
 _atom_site_fract_x
 _atom_site_fract_y
 _atom_site_fract_z
 _atom_site_occupancy
  K  K0  1  0.38854972  0.36120011  0.18088476  1
  Pr  Pr1  1  0.40543819  -0.13941991  0.01463431  1
  S  S2  1  0.40072599  0.86116197  0.67855243  1
  S  S3  1  0.40435610  0.36268784  0.51668850  1
