# generated using pymatgen
data_KRb2InCl6
_symmetry_space_group_name_H-M   'P 1'
_cell_length_a   7.82931228
_cell_length_b   7.45520260
_cell_length_c   11.85517707
_cell_angle_alpha   52.75611659
_cell_angle_beta   47.88526864
_cell_angle_gamma   58.49600163
_symmetry_Int_Tables_number   1
_chemical_formula_structural   KRb2InCl6
_chemical_formula_sum   'K1 Rb2 In1 Cl6'
_cell_volume   400.57119235
_cell_formula_units_Z   1
loop_
 _symmetry_equiv_pos_site_id
 _symmetry_equiv_pos_as_xyz
  1  'x, y, z'
loop_
 _atom_site_type_symbol
 _atom_site_label
 _atom_site_symmetry_multiplicity
 _atom_site_fract_x
 _atom_site_fract_y
 _atom_site_fract_z
 _atom_site_occupancy
  K  K0  1  0.30549629  0.30998825  0.48812389  1
  Rb  Rb1  1  0.75147017  0.77632345  0.78466749  1
  Rb  Rb2  1  0.18025987  0.27196045  0.11783571  1
  In  In3  1  -0.02675211  0.02365979  -0.02104467  1
  Cl  Cl4  1  0.69451815  0.30158633  0.12809327  1
  Cl  Cl5  1  0.28611571  0.23533800  0.80918976  1
  Cl  Cl6  1  0.27417099  0.78574334  0.80578622  1
  Cl  Cl7  1  0.12597178  0.80619751  0.42598485  1
  Cl  Cl8  1  0.76601159  0.20898455  0.83284991  1
  Cl  Cl9  1  0.88305757  0.69383833  0.24052358  1
