# generated using pymatgen
data_KSb2
_symmetry_space_group_name_H-M   'P 1'
_cell_length_a   4.14256576
_cell_length_b   7.57456587
_cell_length_c   10.10534597
_cell_angle_alpha   65.80852498
_cell_angle_beta   114.21134580
_cell_angle_gamma   74.79916009
_symmetry_Int_Tables_number   1
_chemical_formula_structural   KSb2
_chemical_formula_sum   'K2 Sb4'
_cell_volume   225.78047365
_cell_formula_units_Z   2
loop_
 _symmetry_equiv_pos_site_id
 _symmetry_equiv_pos_as_xyz
  1  'x, y, z'
loop_
 _atom_site_type_symbol
 _atom_site_label
 _atom_site_symmetry_multiplicity
 _atom_site_fract_x
 _atom_site_fract_y
 _atom_site_fract_z
 _atom_site_occupancy
  K  K0  1  0.58045009  0.65859332  0.20303492  1
  K  K1  1  0.36557763  0.38919143  0.84647974  1
  Sb  Sb2  1  0.18482584  0.87044882  0.41997078  1
  Sb  Sb3  1  0.73158580  0.20680193  0.62812341  1
  Sb  Sb4  1  0.35056048  0.19593647  0.24205532  1
  Sb  Sb5  1  0.53198015  -0.12007198  0.77101582  1
