# generated using pymatgen
data_KSbS2
_symmetry_space_group_name_H-M   'P 1'
_cell_length_a   9.84589662
_cell_length_b   5.64803958
_cell_length_c   5.98516955
_cell_angle_alpha   111.30952556
_cell_angle_beta   107.97274068
_cell_angle_gamma   97.64272736
_symmetry_Int_Tables_number   1
_chemical_formula_structural   KSbS2
_chemical_formula_sum   'K2 Sb2 S4'
_cell_volume   283.44002993
_cell_formula_units_Z   2
loop_
 _symmetry_equiv_pos_site_id
 _symmetry_equiv_pos_as_xyz
  1  'x, y, z'
loop_
 _atom_site_type_symbol
 _atom_site_label
 _atom_site_symmetry_multiplicity
 _atom_site_fract_x
 _atom_site_fract_y
 _atom_site_fract_z
 _atom_site_occupancy
  K  K0  1  0.92560822  0.04832158  0.65707450  1
  K  K1  1  0.26815776  0.80694916  0.26844258  1
  Sb  Sb2  1  0.54806443  0.33367731  0.15335836  1
  Sb  Sb3  1  0.55918045  0.53800332  0.76550324  1
  S  S4  1  -0.06730952  0.55270896  0.17122863  1
  S  S5  1  0.59726341  0.90557212  0.18651545  1
  S  S6  1  0.28253275  0.19229760  0.96124309  1
  S  S7  1  0.82297250  0.57980995  0.83027416  1
