# generated using pymatgen
data_La2AgHg
_symmetry_space_group_name_H-M   'P 1'
_cell_length_a   3.96375224
_cell_length_b   6.75328472
_cell_length_c   6.53681588
_cell_angle_alpha   65.02217968
_cell_angle_beta   53.93441158
_cell_angle_gamma   53.57481989
_symmetry_Int_Tables_number   1
_chemical_formula_structural   La2AgHg
_chemical_formula_sum   'La2 Ag1 Hg1'
_cell_volume   113.09700240
_cell_formula_units_Z   1
loop_
 _symmetry_equiv_pos_site_id
 _symmetry_equiv_pos_as_xyz
  1  'x, y, z'
loop_
 _atom_site_type_symbol
 _atom_site_label
 _atom_site_symmetry_multiplicity
 _atom_site_fract_x
 _atom_site_fract_y
 _atom_site_fract_z
 _atom_site_occupancy
  La  La0  1  0.15576238  0.57467827  0.88092548  1
  La  La1  1  0.11394249  0.10979764  0.37970734  1
  Ag  Ag2  1  0.10898733  0.62177698  0.37668849  1
  Hg  Hg3  1  0.16361779  0.06329711  -0.11836131  1
