# generated using pymatgen
data_LaCdAu
_symmetry_space_group_name_H-M   'P 1'
_cell_length_a   7.68230182
_cell_length_b   7.57598965
_cell_length_c   4.35832468
_cell_angle_alpha   74.49234046
_cell_angle_beta   89.87244074
_cell_angle_gamma   105.21987030
_symmetry_Int_Tables_number   1
_chemical_formula_structural   LaCdAu
_chemical_formula_sum   'La3 Cd3 Au3'
_cell_volume   235.13501107
_cell_formula_units_Z   3
loop_
 _symmetry_equiv_pos_site_id
 _symmetry_equiv_pos_as_xyz
  1  'x, y, z'
loop_
 _atom_site_type_symbol
 _atom_site_label
 _atom_site_symmetry_multiplicity
 _atom_site_fract_x
 _atom_site_fract_y
 _atom_site_fract_z
 _atom_site_occupancy
  La  La0  1  0.49780274  0.04134549  -0.04739545  1
  La  La1  1  0.53860529  0.59459052  -0.32328688  1
  La  La2  1  -0.00706987  0.40933282  -0.22981430  1
  Cd  Cd3  1  0.90343977  -0.23394524  0.08921980  1
  Cd  Cd4  1  0.27763943  0.25841056  0.34359111  1
  Cd  Cd5  1  -0.13169938  0.02637595  0.46144785  1
  Au  Au6  1  0.68320992  0.34923328  0.29876899  1
  Au  Au7  1  0.18506486  0.86125718  0.54967130  1
  Au  Au8  1  0.25311723  -0.36398056  -0.84221243  1
