# generated using pymatgen
data_LaHg2H
_symmetry_space_group_name_H-M   'P 1'
_cell_length_a   6.21364884
_cell_length_b   4.12398352
_cell_length_c   6.20792194
_cell_angle_alpha   53.91744526
_cell_angle_beta   45.76962792
_cell_angle_gamma   54.11603534
_symmetry_Int_Tables_number   1
_chemical_formula_structural   LaHg2H
_chemical_formula_sum   'La1 Hg2 H1'
_cell_volume   87.79626510
_cell_formula_units_Z   1
loop_
 _symmetry_equiv_pos_site_id
 _symmetry_equiv_pos_as_xyz
  1  'x, y, z'
loop_
 _atom_site_type_symbol
 _atom_site_label
 _atom_site_symmetry_multiplicity
 _atom_site_fract_x
 _atom_site_fract_y
 _atom_site_fract_z
 _atom_site_occupancy
  La  La0  1  0.51048632  0.88651161  0.47604077  1
  Hg  Hg1  1  0.84526049  0.73166002  0.81079793  1
  Hg  Hg2  1  0.17894602  0.03719134  0.14160540  1
  H  H3  1  0.01261717  -0.11228297  -0.02274410  1
