# generated using pymatgen
data_Li2GePbS4
_symmetry_space_group_name_H-M   'P 1'
_cell_length_a   5.86382078
_cell_length_b   8.67448502
_cell_length_c   4.44516325
_cell_angle_alpha   116.29102770
_cell_angle_beta   94.03224590
_cell_angle_gamma   109.17944330
_symmetry_Int_Tables_number   1
_chemical_formula_structural   Li2GePbS4
_chemical_formula_sum   'Li2 Ge1 Pb1 S4'
_cell_volume   185.14100142
_cell_formula_units_Z   1
loop_
 _symmetry_equiv_pos_site_id
 _symmetry_equiv_pos_as_xyz
  1  'x, y, z'
loop_
 _atom_site_type_symbol
 _atom_site_label
 _atom_site_symmetry_multiplicity
 _atom_site_fract_x
 _atom_site_fract_y
 _atom_site_fract_z
 _atom_site_occupancy
  Li  Li0  1  0.65274820  0.30201533  0.53272275  1
  Li  Li1  1  0.07468434  0.73964624  0.24409582  1
  Ge  Ge2  1  0.43904103  0.50143222  0.13990273  1
  Pb  Pb3  1  -0.12310515  0.08884866  -0.15260693  1
  S  S4  1  0.48036392  0.93507037  0.23530040  1
  S  S5  1  0.22092978  0.24762039  0.55080418  1
  S  S6  1  0.80984856  0.43942811  0.16902385  1
  S  S7  1  0.67039931  0.75704869  0.02442720  1
