# generated using pymatgen
data_Li2TbTl
_symmetry_space_group_name_H-M   'P 1'
_cell_length_a   4.87007217
_cell_length_b   4.87282257
_cell_length_c   4.72422617
_cell_angle_alpha   60.24585998
_cell_angle_beta   60.40265240
_cell_angle_gamma   59.87654355
_symmetry_Int_Tables_number   1
_chemical_formula_structural   Li2TbTl
_chemical_formula_sum   'Li2 Tb1 Tl1'
_cell_volume   79.58487299
_cell_formula_units_Z   1
loop_
 _symmetry_equiv_pos_site_id
 _symmetry_equiv_pos_as_xyz
  1  'x, y, z'
loop_
 _atom_site_type_symbol
 _atom_site_label
 _atom_site_symmetry_multiplicity
 _atom_site_fract_x
 _atom_site_fract_y
 _atom_site_fract_z
 _atom_site_occupancy
  Li  Li0  1  -0.00572925  -0.02629201  0.03708181  1
  Li  Li1  1  0.50161463  0.47896664  0.52551061  1
  Tb  Tb2  1  0.24785952  0.22669612  0.28111619  1
  Tl  Tl3  1  0.74593510  0.72604925  0.78209140  1
