# generated using pymatgen
data_Li3P2H
_symmetry_space_group_name_H-M   'P 1'
_cell_length_a   5.40064395
_cell_length_b   3.81032894
_cell_length_c   6.25368674
_cell_angle_alpha   90.04315885
_cell_angle_beta   77.09813119
_cell_angle_gamma   133.85468064
_symmetry_Int_Tables_number   1
_chemical_formula_structural   Li3P2H
_chemical_formula_sum   'Li3 P2 H1'
_cell_volume   88.25924897
_cell_formula_units_Z   1
loop_
 _symmetry_equiv_pos_site_id
 _symmetry_equiv_pos_as_xyz
  1  'x, y, z'
loop_
 _atom_site_type_symbol
 _atom_site_label
 _atom_site_symmetry_multiplicity
 _atom_site_fract_x
 _atom_site_fract_y
 _atom_site_fract_z
 _atom_site_occupancy
  Li  Li0  1  -0.09602338  -0.02366867  0.40357398  1
  Li  Li1  1  0.55442763  0.33953492  0.10341720  1
  Li  Li2  1  0.20042106  0.27576305  0.80358962  1
  P  P3  1  0.34939924  0.91496305  0.50735590  1
  P  P4  1  0.75268397  0.32021373  0.69846132  1
  H  H5  1  0.05115149  -0.00240609  0.10254199  1
