# generated using pymatgen
data_LiAlTe2
_symmetry_space_group_name_H-M   'P 1'
_cell_length_a   7.44167727
_cell_length_b   4.59844619
_cell_length_c   8.52815590
_cell_angle_alpha   116.00349897
_cell_angle_beta   117.52100947
_cell_angle_gamma   73.23080947
_symmetry_Int_Tables_number   1
_chemical_formula_structural   LiAlTe2
_chemical_formula_sum   'Li2 Al2 Te4'
_cell_volume   231.25525336
_cell_formula_units_Z   2
loop_
 _symmetry_equiv_pos_site_id
 _symmetry_equiv_pos_as_xyz
  1  'x, y, z'
loop_
 _atom_site_type_symbol
 _atom_site_label
 _atom_site_symmetry_multiplicity
 _atom_site_fract_x
 _atom_site_fract_y
 _atom_site_fract_z
 _atom_site_occupancy
  Li  Li0  1  0.67402908  0.38453387  0.61092953  1
  Li  Li1  1  0.37815309  0.53105508  -0.03381275  1
  Al  Al2  1  0.22844406  0.89044385  0.53956283  1
  Al  Al3  1  0.01971185  0.52120866  0.55366588  1
  Te  Te4  1  0.72770831  0.81807861  0.29653240  1
  Te  Te5  1  0.59439075  0.05220154  0.76587656  1
  Te  Te6  1  0.01899692  0.01857360  0.20256434  1
  Te  Te7  1  0.33719595  0.31752480  0.23350121  1
