# generated using pymatgen
data_LiDyTl2
_symmetry_space_group_name_H-M   'P 1'
_cell_length_a   4.96975815
_cell_length_b   4.96960617
_cell_length_c   4.52564330
_cell_angle_alpha   102.89821620
_cell_angle_beta   77.11429185
_cell_angle_gamma   83.56932921
_symmetry_Int_Tables_number   1
_chemical_formula_structural   LiDyTl2
_chemical_formula_sum   'Li1 Dy1 Tl2'
_cell_volume   104.65848062
_cell_formula_units_Z   1
loop_
 _symmetry_equiv_pos_site_id
 _symmetry_equiv_pos_as_xyz
  1  'x, y, z'
loop_
 _atom_site_type_symbol
 _atom_site_label
 _atom_site_symmetry_multiplicity
 _atom_site_fract_x
 _atom_site_fract_y
 _atom_site_fract_z
 _atom_site_occupancy
  Li  Li0  1  0.65210416  0.86573991  0.71985146  1
  Dy  Dy1  1  0.19390667  0.32841627  -0.36285258  1
  Tl  Tl2  1  0.01508357  -0.07032109  0.12604632  1
  Tl  Tl3  1  0.59274561  0.50389491  1.12261480  1
