# generated using pymatgen
data_LiGa2
_symmetry_space_group_name_H-M   'P 1'
_cell_length_a   4.76308645
_cell_length_b   4.12292629
_cell_length_c   2.97786881
_cell_angle_alpha   79.21649483
_cell_angle_beta   70.00982491
_cell_angle_gamma   65.32640411
_symmetry_Int_Tables_number   1
_chemical_formula_structural   LiGa2
_chemical_formula_sum   'Li1 Ga2'
_cell_volume   49.87073831
_cell_formula_units_Z   1
loop_
 _symmetry_equiv_pos_site_id
 _symmetry_equiv_pos_as_xyz
  1  'x, y, z'
loop_
 _atom_site_type_symbol
 _atom_site_label
 _atom_site_symmetry_multiplicity
 _atom_site_fract_x
 _atom_site_fract_y
 _atom_site_fract_z
 _atom_site_occupancy
  Li  Li0  1  0.42391778  0.45112905  0.52094669  1
  Ga  Ga1  1  0.08867306  0.11848764  0.17609230  1
  Ga  Ga2  1  0.76032916  0.77795331  0.85200100  1
