# generated using pymatgen
data_LiHo
_symmetry_space_group_name_H-M   'P 1'
_cell_length_a   5.50583850
_cell_length_b   5.72237611
_cell_length_c   5.61392596
_cell_angle_alpha   35.21431223
_cell_angle_beta   34.50271408
_cell_angle_gamma   34.76478869
_symmetry_Int_Tables_number   1
_chemical_formula_structural   LiHo
_chemical_formula_sum   'Li1 Ho1'
_cell_volume   51.48337738
_cell_formula_units_Z   1
loop_
 _symmetry_equiv_pos_site_id
 _symmetry_equiv_pos_as_xyz
  1  'x, y, z'
loop_
 _atom_site_type_symbol
 _atom_site_label
 _atom_site_symmetry_multiplicity
 _atom_site_fract_x
 _atom_site_fract_y
 _atom_site_fract_z
 _atom_site_occupancy
  Li  Li0  1  0.53625803  0.50818156  0.55826394  1
  Ho  Ho1  1  0.04235197  0.00743844  0.05207606  1
