# generated using pymatgen
data_LiHSe2
_symmetry_space_group_name_H-M   'P 1'
_cell_length_a   4.55492703
_cell_length_b   4.28151678
_cell_length_c   7.15873557
_cell_angle_alpha   82.57533152
_cell_angle_beta   130.51359860
_cell_angle_gamma   120.74334037
_symmetry_Int_Tables_number   1
_chemical_formula_structural   LiHSe2
_chemical_formula_sum   'Li1 H1 Se2'
_cell_volume   86.71453004
_cell_formula_units_Z   1
loop_
 _symmetry_equiv_pos_site_id
 _symmetry_equiv_pos_as_xyz
  1  'x, y, z'
loop_
 _atom_site_type_symbol
 _atom_site_label
 _atom_site_symmetry_multiplicity
 _atom_site_fract_x
 _atom_site_fract_y
 _atom_site_fract_z
 _atom_site_occupancy
  Li  Li0  1  -0.01639964  0.86008996  0.24688534  1
  H  H1  1  0.98579885  0.90938810  -0.16258652  1
  Se  Se2  1  0.71136030  0.50035569  0.81340517  1
  Se  Se3  1  0.33856049  0.55077624  0.25049601  1
