# generated using pymatgen
data_LiMgSn
_symmetry_space_group_name_H-M   'P 1'
_cell_length_a   4.90191951
_cell_length_b   3.35584106
_cell_length_c   5.01959932
_cell_angle_alpha   68.81605361
_cell_angle_beta   58.43138465
_cell_angle_gamma   72.17744988
_symmetry_Int_Tables_number   1
_chemical_formula_structural   LiMgSn
_chemical_formula_sum   'Li1 Mg1 Sn1'
_cell_volume   64.88505122
_cell_formula_units_Z   1
loop_
 _symmetry_equiv_pos_site_id
 _symmetry_equiv_pos_as_xyz
  1  'x, y, z'
loop_
 _atom_site_type_symbol
 _atom_site_label
 _atom_site_symmetry_multiplicity
 _atom_site_fract_x
 _atom_site_fract_y
 _atom_site_fract_z
 _atom_site_occupancy
  Li  Li0  1  0.72814362  0.77408991  0.76875426  1
  Mg  Mg1  1  0.40682501  0.56938645  0.44857662  1
  Sn  Sn2  1  0.03380137  -0.05210636  0.07662912  1
