# generated using pymatgen
data_LiPm2Ga
_symmetry_space_group_name_H-M   'P 1'
_cell_length_a   4.87159208
_cell_length_b   4.87367688
_cell_length_c   7.75484075
_cell_angle_alpha   54.69593233
_cell_angle_beta   54.36055848
_cell_angle_gamma   58.59452933
_symmetry_Int_Tables_number   1
_chemical_formula_structural   LiPm2Ga
_chemical_formula_sum   'Li1 Pm2 Ga1'
_cell_volume   117.30390401
_cell_formula_units_Z   1
loop_
 _symmetry_equiv_pos_site_id
 _symmetry_equiv_pos_as_xyz
  1  'x, y, z'
loop_
 _atom_site_type_symbol
 _atom_site_label
 _atom_site_symmetry_multiplicity
 _atom_site_fract_x
 _atom_site_fract_y
 _atom_site_fract_z
 _atom_site_occupancy
  Li  Li0  1  0.81634590  0.76065519  0.77537389  1
  Pm  Pm1  1  -0.02005713  -0.07394531  0.02172975  1
  Pm  Pm2  1  0.38862164  0.34055828  0.42204834  1
  Ga  Ga3  1  0.18819960  0.13725183  0.21198801  1
