# generated using pymatgen
data_LiYGa4
_symmetry_space_group_name_H-M   'P 1'
_cell_length_a   3.39968135
_cell_length_b   5.85169797
_cell_length_c   7.05101134
_cell_angle_alpha   80.04111169
_cell_angle_beta   72.61026681
_cell_angle_gamma   108.55584528
_symmetry_Int_Tables_number   1
_chemical_formula_structural   LiYGa4
_chemical_formula_sum   'Li1 Y1 Ga4'
_cell_volume   121.20375634
_cell_formula_units_Z   1
loop_
 _symmetry_equiv_pos_site_id
 _symmetry_equiv_pos_as_xyz
  1  'x, y, z'
loop_
 _atom_site_type_symbol
 _atom_site_label
 _atom_site_symmetry_multiplicity
 _atom_site_fract_x
 _atom_site_fract_y
 _atom_site_fract_z
 _atom_site_occupancy
  Li  Li0  1  0.22181963  -0.02887393  0.51609475  1
  Y  Y1  1  -0.13591210  -0.03978288  0.04670590  1
  Ga  Ga2  1  0.61677157  0.58132186  0.44283733  1
  Ga  Ga3  1  0.76101379  0.28207528  0.70835234  1
  Ga  Ga4  1  0.35043259  0.63805055  0.83745261  1
  Ga  Ga5  1  0.50714452  0.36246911  0.14745707  1
