# generated using pymatgen
data_LiYSi
_symmetry_space_group_name_H-M   'P 1'
_cell_length_a   6.18378596
_cell_length_b   8.90057156
_cell_length_c   4.26458546
_cell_angle_alpha   89.98261697
_cell_angle_beta   90.05954463
_cell_angle_gamma   129.01166876
_symmetry_Int_Tables_number   1
_chemical_formula_structural   LiYSi
_chemical_formula_sum   'Li3 Y3 Si3'
_cell_volume   182.38110563
_cell_formula_units_Z   3
loop_
 _symmetry_equiv_pos_site_id
 _symmetry_equiv_pos_as_xyz
  1  'x, y, z'
loop_
 _atom_site_type_symbol
 _atom_site_label
 _atom_site_symmetry_multiplicity
 _atom_site_fract_x
 _atom_site_fract_y
 _atom_site_fract_z
 _atom_site_occupancy
  Li  Li0  1  0.09182109  0.02797079  0.54375461  1
  Li  Li1  1  0.52675135  0.71506438  0.54320165  1
  Li  Li2  1  -0.29373072  0.05441925  0.54380339  1
  Y  Y3  1  0.21155917  0.38034944  0.04311255  1
  Y  Y4  1  0.53383848  0.17676123  0.04354539  1
  Y  Y5  1  0.97604529  0.68874479  0.04363411  1
  Si  Si6  1  0.55505132  0.41879705  0.54350712  1
  Si  Si7  1  0.95264070  0.43439069  0.54335168  1
  Si  Si8  1  -0.20376667  -0.05953762  0.04359950  1
