# generated using pymatgen
data_Lu2Mo2C3
_symmetry_space_group_name_H-M   'P 1'
_cell_length_a   6.20784003
_cell_length_b   4.96143659
_cell_length_c   5.43834492
_cell_angle_alpha   80.97035052
_cell_angle_beta   102.50177489
_cell_angle_gamma   142.56905199
_symmetry_Int_Tables_number   1
_chemical_formula_structural   Lu2Mo2C3
_chemical_formula_sum   'Lu2 Mo2 C3'
_cell_volume   99.36181647
_cell_formula_units_Z   1
loop_
 _symmetry_equiv_pos_site_id
 _symmetry_equiv_pos_as_xyz
  1  'x, y, z'
loop_
 _atom_site_type_symbol
 _atom_site_label
 _atom_site_symmetry_multiplicity
 _atom_site_fract_x
 _atom_site_fract_y
 _atom_site_fract_z
 _atom_site_occupancy
  Lu  Lu0  1  0.41659457  0.28391383  0.81331164  1
  Lu  Lu1  1  0.51915123  0.70443397  0.28220144  1
  Mo  Mo2  1  0.92093985  0.29600482  0.79783016  1
  Mo  Mo3  1  0.01489947  0.69210991  0.29772314  1
  C  C4  1  0.37073845  0.79411818  0.63070338  1
  C  C5  1  0.56521959  0.19403761  0.46495309  1
  C  C6  1  0.96760683  -0.00608833  0.04791714  1
