# generated using pymatgen
data_Lu2ZnIr
_symmetry_space_group_name_H-M   'P 1'
_cell_length_a   9.37562561
_cell_length_b   4.54914378
_cell_length_c   4.48573276
_cell_angle_alpha   59.65610554
_cell_angle_beta   43.95316029
_cell_angle_gamma   43.37958908
_symmetry_Int_Tables_number   1
_chemical_formula_structural   Lu2ZnIr
_chemical_formula_sum   'Lu2 Zn1 Ir1'
_cell_volume   91.13881024
_cell_formula_units_Z   1
loop_
 _symmetry_equiv_pos_site_id
 _symmetry_equiv_pos_as_xyz
  1  'x, y, z'
loop_
 _atom_site_type_symbol
 _atom_site_label
 _atom_site_symmetry_multiplicity
 _atom_site_fract_x
 _atom_site_fract_y
 _atom_site_fract_z
 _atom_site_occupancy
  Lu  Lu0  1  0.09033614  0.80528084  0.87692107  1
  Lu  Lu1  1  0.51639968  0.70962284  0.78912487  1
  Zn  Zn2  1  0.80335565  0.75828239  0.83266619  1
  Ir  Ir3  1  0.30309853  0.25796393  0.33279786  1
