# generated using pymatgen
data_Lu2ZnRu
_symmetry_space_group_name_H-M   'P 1'
_cell_length_a   3.41632293
_cell_length_b   3.37989226
_cell_length_c   8.39632814
_cell_angle_alpha   66.59469429
_cell_angle_beta   66.07207397
_cell_angle_gamma   89.97485188
_symmetry_Int_Tables_number   1
_chemical_formula_structural   Lu2ZnRu
_chemical_formula_sum   'Lu2 Zn1 Ru1'
_cell_volume   79.82093402
_cell_formula_units_Z   1
loop_
 _symmetry_equiv_pos_site_id
 _symmetry_equiv_pos_as_xyz
  1  'x, y, z'
loop_
 _atom_site_type_symbol
 _atom_site_label
 _atom_site_symmetry_multiplicity
 _atom_site_fract_x
 _atom_site_fract_y
 _atom_site_fract_z
 _atom_site_occupancy
  Lu  Lu0  1  0.93109676  0.03494397  0.01376957  1
  Lu  Lu1  1  0.46845319  0.56667033  0.47704527  1
  Zn  Zn2  1  0.70121248  0.80314071  0.74463937  1
  Ru  Ru3  1  0.19981756  0.30041499  0.24553578  1
