# generated using pymatgen
data_LuAl2Pd5
_symmetry_space_group_name_H-M   'P 1'
_cell_length_a   5.60221941
_cell_length_b   9.52256681
_cell_length_c   8.55173999
_cell_angle_alpha   154.36896247
_cell_angle_beta   139.76221053
_cell_angle_gamma   46.50116842
_symmetry_Int_Tables_number   1
_chemical_formula_structural   LuAl2Pd5
_chemical_formula_sum   'Lu1 Al2 Pd5'
_cell_volume   127.47814739
_cell_formula_units_Z   1
loop_
 _symmetry_equiv_pos_site_id
 _symmetry_equiv_pos_as_xyz
  1  'x, y, z'
loop_
 _atom_site_type_symbol
 _atom_site_label
 _atom_site_symmetry_multiplicity
 _atom_site_fract_x
 _atom_site_fract_y
 _atom_site_fract_z
 _atom_site_occupancy
  Lu  Lu0  1  -0.07420895  -0.21451396  -0.22778389  1
  Al  Al1  1  -0.07233198  0.28501369  -0.01503907  1
  Al  Al2  1  0.92708102  0.78562438  0.20369012  1
  Pd  Pd3  1  0.47698698  0.28591104  0.51963234  1
  Pd  Pd4  1  0.50642984  0.78520681  0.28405918  1
  Pd  Pd5  1  0.34898231  0.78543286  0.70661295  1
  Pd  Pd6  1  0.92737841  0.28663928  0.48837380  1
  Pd  Pd7  1  0.37527237  0.28565590  -0.03115543  1
