# generated using pymatgen
data_LuBr3
_symmetry_space_group_name_H-M   'P 1'
_cell_length_a   9.89192921
_cell_length_b   10.97598799
_cell_length_c   3.83188571
_cell_angle_alpha   102.14723730
_cell_angle_beta   109.79657124
_cell_angle_gamma   111.35476440
_symmetry_Int_Tables_number   1
_chemical_formula_structural   LuBr3
_chemical_formula_sum   'Lu2 Br6'
_cell_volume   337.10048045
_cell_formula_units_Z   2
loop_
 _symmetry_equiv_pos_site_id
 _symmetry_equiv_pos_as_xyz
  1  'x, y, z'
loop_
 _atom_site_type_symbol
 _atom_site_label
 _atom_site_symmetry_multiplicity
 _atom_site_fract_x
 _atom_site_fract_y
 _atom_site_fract_z
 _atom_site_occupancy
  Lu  Lu0  1  0.42470232  0.77567313  0.51042675  1
  Lu  Lu1  1  0.57129353  0.44910808  -0.05815295  1
  Br  Br2  1  0.30384905  0.56036231  0.77545941  1
  Br  Br3  1  0.61778269  0.96041709  0.29158975  1
  Br  Br4  1  0.18453623  0.82526115  0.34575240  1
  Br  Br5  1  0.67963236  0.67664062  0.67471008  1
  Br  Br6  1  0.34125335  0.28720002  0.14341802  1
  Br  Br7  1  0.75595046  0.39406761  0.57025654  1
