# generated using pymatgen
data_LuSbRh2
_symmetry_space_group_name_H-M   'P 1'
_cell_length_a   3.71328113
_cell_length_b   4.32857776
_cell_length_c   6.12530499
_cell_angle_alpha   46.31998059
_cell_angle_beta   86.21051073
_cell_angle_gamma   86.47028095
_symmetry_Int_Tables_number   1
_chemical_formula_structural   LuSbRh2
_chemical_formula_sum   'Lu1 Sb1 Rh2'
_cell_volume   71.02932698
_cell_formula_units_Z   1
loop_
 _symmetry_equiv_pos_site_id
 _symmetry_equiv_pos_as_xyz
  1  'x, y, z'
loop_
 _atom_site_type_symbol
 _atom_site_label
 _atom_site_symmetry_multiplicity
 _atom_site_fract_x
 _atom_site_fract_y
 _atom_site_fract_z
 _atom_site_occupancy
  Lu  Lu0  1  -0.07935098  0.39564764  0.15868519  1
  Sb  Sb1  1  -0.07572286  0.39542378  0.65885642  1
  Rh  Rh2  1  0.42003437  -0.10468440  0.15779579  1
  Rh  Rh3  1  0.42158947  -0.10702702  0.65915259  1
