# generated using pymatgen
data_LuTe3
_symmetry_space_group_name_H-M   'P 1'
_cell_length_a   14.46930833
_cell_length_b   8.69464151
_cell_length_c   4.32976378
_cell_angle_alpha   105.64733721
_cell_angle_beta   80.38428682
_cell_angle_gamma   140.49269406
_symmetry_Int_Tables_number   1
_chemical_formula_structural   LuTe3
_chemical_formula_sum   'Lu2 Te6'
_cell_volume   332.93769862
_cell_formula_units_Z   2
loop_
 _symmetry_equiv_pos_site_id
 _symmetry_equiv_pos_as_xyz
  1  'x, y, z'
loop_
 _atom_site_type_symbol
 _atom_site_label
 _atom_site_symmetry_multiplicity
 _atom_site_fract_x
 _atom_site_fract_y
 _atom_site_fract_z
 _atom_site_occupancy
  Lu  Lu0  1  -0.15088133  0.65241775  -0.04339754  1
  Lu  Lu1  1  0.91035262  0.22588901  0.23292597  1
  Te  Te2  1  0.96882485  0.04266519  0.60643518  1
  Te  Te3  1  0.17373746  -0.01095251  0.04424575  1
  Te  Te4  1  0.41045968  0.34136397  0.65909468  1
  Te  Te5  1  0.63780658  0.65503883  0.16393120  1
  Te  Te6  1  0.12774779  0.59599220  0.81383473  1
  Te  Te7  1  0.73786235  0.29824555  0.32736004  1
