# generated using pymatgen
data_Mg2Fe
_symmetry_space_group_name_H-M   'P 1'
_cell_length_a   2.86628646
_cell_length_b   4.80564298
_cell_length_c   5.24398390
_cell_angle_alpha   62.19653502
_cell_angle_beta   73.35920931
_cell_angle_gamma   53.44905609
_symmetry_Int_Tables_number   1
_chemical_formula_structural   Mg2Fe
_chemical_formula_sum   'Mg2 Fe1'
_cell_volume   51.32360967
_cell_formula_units_Z   1
loop_
 _symmetry_equiv_pos_site_id
 _symmetry_equiv_pos_as_xyz
  1  'x, y, z'
loop_
 _atom_site_type_symbol
 _atom_site_label
 _atom_site_symmetry_multiplicity
 _atom_site_fract_x
 _atom_site_fract_y
 _atom_site_fract_z
 _atom_site_occupancy
  Mg  Mg0  1  -0.01604900  0.32355248  0.26485341  1
  Mg  Mg1  1  0.98581062  0.63330050  0.64530679  1
  Fe  Fe2  1  -0.01489162  -0.02155298  -0.04655020  1
