# generated using pymatgen
data_Mg2MnFe
_symmetry_space_group_name_H-M   'P 1'
_cell_length_a   4.74324801
_cell_length_b   2.83636819
_cell_length_c   6.32409312
_cell_angle_alpha   115.42266699
_cell_angle_beta   75.72695812
_cell_angle_gamma   125.64488922
_symmetry_Int_Tables_number   1
_chemical_formula_structural   Mg2MnFe
_chemical_formula_sum   'Mg2 Mn1 Fe1'
_cell_volume   62.44523448
_cell_formula_units_Z   1
loop_
 _symmetry_equiv_pos_site_id
 _symmetry_equiv_pos_as_xyz
  1  'x, y, z'
loop_
 _atom_site_type_symbol
 _atom_site_label
 _atom_site_symmetry_multiplicity
 _atom_site_fract_x
 _atom_site_fract_y
 _atom_site_fract_z
 _atom_site_occupancy
  Mg  Mg0  1  0.47242467  0.37032984  0.73731850  1
  Mg  Mg1  1  0.47213946  0.86361918  0.22574644  1
  Mn  Mn2  1  -0.02739239  0.11910297  0.48212567  1
  Fe  Fe3  1  -0.02750174  -0.38201200  -0.01948061  1
