# generated using pymatgen
data_Mg2P2S7
_symmetry_space_group_name_H-M   'P 1'
_cell_length_a   6.75049201
_cell_length_b   7.54853494
_cell_length_c   8.04693821
_cell_angle_alpha   69.04128056
_cell_angle_beta   77.33440524
_cell_angle_gamma   55.97473715
_symmetry_Int_Tables_number   1
_chemical_formula_structural   Mg2P2S7
_chemical_formula_sum   'Mg2 P2 S7'
_cell_volume   317.25835034
_cell_formula_units_Z   1
loop_
 _symmetry_equiv_pos_site_id
 _symmetry_equiv_pos_as_xyz
  1  'x, y, z'
loop_
 _atom_site_type_symbol
 _atom_site_label
 _atom_site_symmetry_multiplicity
 _atom_site_fract_x
 _atom_site_fract_y
 _atom_site_fract_z
 _atom_site_occupancy
  Mg  Mg0  1  0.44751843  0.33506101  0.03491263  1
  Mg  Mg1  1  0.39857461  0.90380443  0.00487094  1
  P  P2  1  -0.01556640  0.94832833  0.78111992  1
  P  P3  1  0.86164939  0.32440865  0.17198313  1
  S  S4  1  0.22246521  0.13930308  0.21268017  1
  S  S5  1  0.04851167  0.21758127  0.75057642  1
  S  S6  1  0.71822928  0.13701512  0.28768292  1
  S  S7  1  0.80018611  0.44866835  0.88207084  1
  S  S8  1  0.60961734  0.11462161  0.81579942  1
  S  S9  1  0.70568339  0.61086790  0.23232273  1
  S  S10  1  0.16043098  -0.26575976  0.02765090  1
