# generated using pymatgen
data_Mg2Se3
_symmetry_space_group_name_H-M   'P 1'
_cell_length_a   5.43551979
_cell_length_b   5.62298561
_cell_length_c   4.27690825
_cell_angle_alpha   90.06931671
_cell_angle_beta   89.97331872
_cell_angle_gamma   101.61963961
_symmetry_Int_Tables_number   1
_chemical_formula_structural   Mg2Se3
_chemical_formula_sum   'Mg2 Se3'
_cell_volume   128.03976734
_cell_formula_units_Z   1
loop_
 _symmetry_equiv_pos_site_id
 _symmetry_equiv_pos_as_xyz
  1  'x, y, z'
loop_
 _atom_site_type_symbol
 _atom_site_label
 _atom_site_symmetry_multiplicity
 _atom_site_fract_x
 _atom_site_fract_y
 _atom_site_fract_z
 _atom_site_occupancy
  Mg  Mg0  1  0.50657176  0.23412881  0.43149999  1
  Mg  Mg1  1  0.22620443  0.67723479  0.93883707  1
  Se  Se2  1  0.82480030  0.33643591  0.93156511  1
  Se  Se3  1  0.49558883  0.72930894  0.43802885  1
  Se  Se4  1  0.18238468  0.13948155  -0.07041103  1
