# generated using pymatgen
data_Mg3H
_symmetry_space_group_name_H-M   'P 1'
_cell_length_a   5.69222627
_cell_length_b   5.60815316
_cell_length_c   3.16417465
_cell_angle_alpha   55.02857369
_cell_angle_beta   73.91891985
_cell_angle_gamma   60.60311793
_symmetry_Int_Tables_number   1
_chemical_formula_structural   Mg3H
_chemical_formula_sum   'Mg3 H1'
_cell_volume   72.11217284
_cell_formula_units_Z   1
loop_
 _symmetry_equiv_pos_site_id
 _symmetry_equiv_pos_as_xyz
  1  'x, y, z'
loop_
 _atom_site_type_symbol
 _atom_site_label
 _atom_site_symmetry_multiplicity
 _atom_site_fract_x
 _atom_site_fract_y
 _atom_site_fract_z
 _atom_site_occupancy
  Mg  Mg0  1  0.53913187  0.51529395  0.61056077  1
  Mg  Mg1  1  0.21953035  0.17915015  0.60964644  1
  Mg  Mg2  1  0.87636357  0.82431800  0.63067634  1
  H  H3  1  -0.11747580  0.09115790  -0.14161354  1
