# generated using pymatgen
data_MgHAu2
_symmetry_space_group_name_H-M   'P 1'
_cell_length_a   5.22831174
_cell_length_b   3.64571946
_cell_length_c   5.05736036
_cell_angle_alpha   43.75940360
_cell_angle_beta   61.67881925
_cell_angle_gamma   70.31869380
_symmetry_Int_Tables_number   1
_chemical_formula_structural   MgHAu2
_chemical_formula_sum   'Mg1 H1 Au2'
_cell_volume   58.68877683
_cell_formula_units_Z   1
loop_
 _symmetry_equiv_pos_site_id
 _symmetry_equiv_pos_as_xyz
  1  'x, y, z'
loop_
 _atom_site_type_symbol
 _atom_site_label
 _atom_site_symmetry_multiplicity
 _atom_site_fract_x
 _atom_site_fract_y
 _atom_site_fract_z
 _atom_site_occupancy
  Mg  Mg0  1  -0.01411939  -0.09193758  0.06890112  1
  H  H1  1  0.57353311  0.57732368  0.27461813  1
  Au  Au2  1  0.27419429  -0.09149963  0.42643516  1
  Au  Au3  1  0.66075199  0.89130353  0.73145559  1
