# generated using pymatgen
data_MgNi2Sn
_symmetry_space_group_name_H-M   'P 1'
_cell_length_a   6.24627329
_cell_length_b   3.81819953
_cell_length_c   4.11829435
_cell_angle_alpha   61.22574179
_cell_angle_beta   72.78016127
_cell_angle_gamma   52.42038350
_symmetry_Int_Tables_number   1
_chemical_formula_structural   MgNi2Sn
_chemical_formula_sum   'Mg1 Ni2 Sn1'
_cell_volume   68.22766082
_cell_formula_units_Z   1
loop_
 _symmetry_equiv_pos_site_id
 _symmetry_equiv_pos_as_xyz
  1  'x, y, z'
loop_
 _atom_site_type_symbol
 _atom_site_label
 _atom_site_symmetry_multiplicity
 _atom_site_fract_x
 _atom_site_fract_y
 _atom_site_fract_z
 _atom_site_occupancy
  Mg  Mg0  1  0.51440314  0.69141738  0.46562301  1
  Ni  Ni1  1  0.26538662  0.25532051  -0.17580633  1
  Ni  Ni2  1  0.76352771  0.75655601  0.82417286  1
  Sn  Sn3  1  0.01470253  -0.17773390  0.18003045  1
