# generated using pymatgen
data_MgPSe3
_symmetry_space_group_name_H-M   'P 1'
_cell_length_a   9.51200044
_cell_length_b   6.26518931
_cell_length_c   7.08510099
_cell_angle_alpha   61.37026350
_cell_angle_beta   52.15752861
_cell_angle_gamma   55.60082039
_symmetry_Int_Tables_number   1
_chemical_formula_structural   MgPSe3
_chemical_formula_sum   'Mg2 P2 Se6'
_cell_volume   269.37375619
_cell_formula_units_Z   2
loop_
 _symmetry_equiv_pos_site_id
 _symmetry_equiv_pos_as_xyz
  1  'x, y, z'
loop_
 _atom_site_type_symbol
 _atom_site_label
 _atom_site_symmetry_multiplicity
 _atom_site_fract_x
 _atom_site_fract_y
 _atom_site_fract_z
 _atom_site_occupancy
  Mg  Mg0  1  0.08531775  0.30372888  0.27717914  1
  Mg  Mg1  1  0.73939261  0.81235005  0.76352915  1
  P  P2  1  0.65163352  0.56374850  0.47447021  1
  P  P3  1  0.38992733  0.53425119  0.32209986  1
  Se  Se4  1  0.35537546  0.92331285  0.04008340  1
  Se  Se5  1  0.11666642  0.45681541  0.52958660  1
  Se  Se6  1  0.70746122  -0.09093655  0.37502278  1
  Se  Se7  1  0.77417386  0.23294173  0.72624871  1
  Se  Se8  1  0.83724049  0.42262730  0.12304075  1
  Se  Se9  1  0.33290134  0.63899062  0.64549941  1
