# generated using pymatgen
data_MgSc2
_symmetry_space_group_name_H-M   'P 1'
_cell_length_a   4.56523371
_cell_length_b   6.44323548
_cell_length_c   5.34990344
_cell_angle_alpha   102.71694833
_cell_angle_beta   67.28889397
_cell_angle_gamma   88.05024725
_symmetry_Int_Tables_number   1
_chemical_formula_structural   MgSc2
_chemical_formula_sum   'Mg2 Sc4'
_cell_volume   140.36005004
_cell_formula_units_Z   2
loop_
 _symmetry_equiv_pos_site_id
 _symmetry_equiv_pos_as_xyz
  1  'x, y, z'
loop_
 _atom_site_type_symbol
 _atom_site_label
 _atom_site_symmetry_multiplicity
 _atom_site_fract_x
 _atom_site_fract_y
 _atom_site_fract_z
 _atom_site_occupancy
  Mg  Mg0  1  0.30790543  0.33862155  0.11565540  1
  Mg  Mg1  1  0.63498822  0.18087606  0.45780714  1
  Sc  Sc2  1  0.96210222  0.00230205  -0.19886252  1
  Sc  Sc3  1  0.30544445  0.83121290  0.12078441  1
  Sc  Sc4  1  0.63670815  -0.31099178  0.45410053  1
  Sc  Sc5  1  -0.01896847  0.51704922  0.77174504  1
