# generated using pymatgen
data_MgSiOs2
_symmetry_space_group_name_H-M   'P 1'
_cell_length_a   4.26130941
_cell_length_b   4.26185595
_cell_length_c   4.26176401
_cell_angle_alpha   59.99115240
_cell_angle_beta   59.98552678
_cell_angle_gamma   60.02455681
_symmetry_Int_Tables_number   1
_chemical_formula_structural   MgSiOs2
_chemical_formula_sum   'Mg1 Si1 Os2'
_cell_volume   54.72933542
_cell_formula_units_Z   1
loop_
 _symmetry_equiv_pos_site_id
 _symmetry_equiv_pos_as_xyz
  1  'x, y, z'
loop_
 _atom_site_type_symbol
 _atom_site_label
 _atom_site_symmetry_multiplicity
 _atom_site_fract_x
 _atom_site_fract_y
 _atom_site_fract_z
 _atom_site_occupancy
  Mg  Mg0  1  0.24974833  0.24636757  0.29227915  1
  Si  Si1  1  0.75005323  0.74667625  0.79172321  1
  Os  Os2  1  0.50012755  0.49646605  0.54199812  1
  Os  Os3  1  -0.00035911  -0.00345987  0.04205952  1
