# generated using pymatgen
data_MgZnAu2
_symmetry_space_group_name_H-M   'P 1'
_cell_length_a   3.62927431
_cell_length_b   3.14751349
_cell_length_c   7.35804875
_cell_angle_alpha   66.04710238
_cell_angle_beta   61.45483690
_cell_angle_gamma   87.30362506
_symmetry_Int_Tables_number   1
_chemical_formula_structural   MgZnAu2
_chemical_formula_sum   'Mg1 Zn1 Au2'
_cell_volume   66.33611616
_cell_formula_units_Z   1
loop_
 _symmetry_equiv_pos_site_id
 _symmetry_equiv_pos_as_xyz
  1  'x, y, z'
loop_
 _atom_site_type_symbol
 _atom_site_label
 _atom_site_symmetry_multiplicity
 _atom_site_fract_x
 _atom_site_fract_y
 _atom_site_fract_z
 _atom_site_occupancy
  Mg  Mg0  1  0.24012304  0.21264543  0.22728152  1
  Zn  Zn1  1  0.73966137  0.71214940  0.72745150  1
  Au  Au2  1  0.49578957  0.47276889  0.48143845  1
  Au  Au3  1  -0.01650397  -0.04753373  -0.02680147  1
