# generated using pymatgen
data_MnAlIr2
_symmetry_space_group_name_H-M   'P 1'
_cell_length_a   4.71762553
_cell_length_b   4.66584776
_cell_length_c   4.71181584
_cell_angle_alpha   46.30962319
_cell_angle_beta   46.53067898
_cell_angle_gamma   67.46048050
_symmetry_Int_Tables_number   1
_chemical_formula_structural   MnAlIr2
_chemical_formula_sum   'Mn1 Al1 Ir2'
_cell_volume   53.58579095
_cell_formula_units_Z   1
loop_
 _symmetry_equiv_pos_site_id
 _symmetry_equiv_pos_as_xyz
  1  'x, y, z'
loop_
 _atom_site_type_symbol
 _atom_site_label
 _atom_site_symmetry_multiplicity
 _atom_site_fract_x
 _atom_site_fract_y
 _atom_site_fract_z
 _atom_site_occupancy
  Mn  Mn0  1  0.73186860  0.44159731  0.82426696  1
  Al  Al1  1  -0.01895459  0.19181763  0.32451958  1
  Ir  Ir2  1  0.23014013  -0.06013730  -0.17290058  1
  Ir  Ir3  1  0.48326586  0.69401236  0.32114403  1
