# generated using pymatgen
data_MnCu2SnSe4
_symmetry_space_group_name_H-M   'P 1'
_cell_length_a   5.33080591
_cell_length_b   7.89918253
_cell_length_c   9.29878804
_cell_angle_alpha   135.40764134
_cell_angle_beta   138.21202275
_cell_angle_gamma   55.98038717
_symmetry_Int_Tables_number   1
_chemical_formula_structural   MnCu2SnSe4
_chemical_formula_sum   'Mn1 Cu2 Sn1 Se4'
_cell_volume   182.84618923
_cell_formula_units_Z   1
loop_
 _symmetry_equiv_pos_site_id
 _symmetry_equiv_pos_as_xyz
  1  'x, y, z'
loop_
 _atom_site_type_symbol
 _atom_site_label
 _atom_site_symmetry_multiplicity
 _atom_site_fract_x
 _atom_site_fract_y
 _atom_site_fract_z
 _atom_site_occupancy
  Mn  Mn0  1  0.14580033  -0.04251974  0.01962376  1
  Cu  Cu1  1  0.24516012  0.69803865  0.51330792  1
  Cu  Cu2  1  0.71750874  0.26653260  0.42284196  1
  Sn  Sn3  1  0.18631990  0.37625391  -0.07374041  1
  Se  Se4  1  0.60927900  0.95997286  -0.02037945  1
  Se  Se5  1  0.82026849  0.62606004  0.56396179  1
  Se  Se6  1  -0.31952752  -0.01064978  0.43066642  1
  Se  Se7  1  0.91423094  0.36179146  0.08546801  1
