# generated using pymatgen
data_MnCu2AsSe4
_symmetry_space_group_name_H-M   'P 1'
_cell_length_a   7.26247859
_cell_length_b   6.12254745
_cell_length_c   7.14839567
_cell_angle_alpha   130.76922824
_cell_angle_beta   120.89772637
_cell_angle_gamma   83.67325927
_symmetry_Int_Tables_number   1
_chemical_formula_structural   MnCu2AsSe4
_chemical_formula_sum   'Mn1 Cu2 As1 Se4'
_cell_volume   193.77128661
_cell_formula_units_Z   1
loop_
 _symmetry_equiv_pos_site_id
 _symmetry_equiv_pos_as_xyz
  1  'x, y, z'
loop_
 _atom_site_type_symbol
 _atom_site_label
 _atom_site_symmetry_multiplicity
 _atom_site_fract_x
 _atom_site_fract_y
 _atom_site_fract_z
 _atom_site_occupancy
  Mn  Mn0  1  0.02886102  0.09992869  0.00433328  1
  Cu  Cu1  1  0.12270121  0.72734384  0.34051031  1
  Cu  Cu2  1  0.90301550  0.40813197  0.36458391  1
  As  As3  1  0.39612640  0.52694057  0.21881940  1
  Se  Se4  1  0.28598040  0.97140405  -0.13676470  1
  Se  Se5  1  0.73853801  0.59079316  0.62691506  1
  Se  Se6  1  0.18069649  0.16936778  0.42214174  1
  Se  Se7  1  0.75832097  0.33293994  -0.06714900  1
