# generated using pymatgen
data_MnGe
_symmetry_space_group_name_H-M   'P 1'
_cell_length_a   4.33492841
_cell_length_b   4.76650772
_cell_length_c   6.18844972
_cell_angle_alpha   100.56547706
_cell_angle_beta   74.71909547
_cell_angle_gamma   93.14941561
_symmetry_Int_Tables_number   1
_chemical_formula_structural   MnGe
_chemical_formula_sum   'Mn4 Ge4'
_cell_volume   121.25370845
_cell_formula_units_Z   4
loop_
 _symmetry_equiv_pos_site_id
 _symmetry_equiv_pos_as_xyz
  1  'x, y, z'
loop_
 _atom_site_type_symbol
 _atom_site_label
 _atom_site_symmetry_multiplicity
 _atom_site_fract_x
 _atom_site_fract_y
 _atom_site_fract_z
 _atom_site_occupancy
  Mn  Mn0  1  0.66485025  0.19177027  0.30319770  1
  Mn  Mn1  1  0.09783770  0.42222477  0.49197319  1
  Mn  Mn2  1  0.40053265  0.57882387  0.11141284  1
  Mn  Mn3  1  0.93988020  0.33406579  0.90023819  1
  Ge  Ge4  1  0.19923668  0.94118441  0.56471010  1
  Ge  Ge5  1  0.84544712  0.70523126  0.26365688  1
  Ge  Ge6  1  0.52726834  0.49809725  0.70769844  1
  Ge  Ge7  1  0.28769706  0.06251239  0.05672267  1
