# generated using pymatgen
data_MnNiSb
_symmetry_space_group_name_H-M   'P 1'
_cell_length_a   3.49298616
_cell_length_b   3.47668405
_cell_length_c   4.59695716
_cell_angle_alpha   68.50968691
_cell_angle_beta   68.00756497
_cell_angle_gamma   89.42285089
_symmetry_Int_Tables_number   1
_chemical_formula_structural   MnNiSb
_chemical_formula_sum   'Mn1 Ni1 Sb1'
_cell_volume   47.63900523
_cell_formula_units_Z   1
loop_
 _symmetry_equiv_pos_site_id
 _symmetry_equiv_pos_as_xyz
  1  'x, y, z'
loop_
 _atom_site_type_symbol
 _atom_site_label
 _atom_site_symmetry_multiplicity
 _atom_site_fract_x
 _atom_site_fract_y
 _atom_site_fract_z
 _atom_site_occupancy
  Mn  Mn0  1  0.29333271  0.35343074  0.32355109  1
  Ni  Ni1  1  -0.04530991  0.01659054  0.00476234  1
  Sb  Sb2  1  0.62678719  0.69145873  0.66267657  1
