# generated using pymatgen
data_MnV2Cr
_symmetry_space_group_name_H-M   'P 1'
_cell_length_a   3.88269867
_cell_length_b   4.72358973
_cell_length_c   4.88926320
_cell_angle_alpha   56.65925872
_cell_angle_beta   64.14545537
_cell_angle_gamma   38.33998970
_symmetry_Int_Tables_number   1
_chemical_formula_structural   MnV2Cr
_chemical_formula_sum   'Mn1 V2 Cr1'
_cell_volume   46.46785889
_cell_formula_units_Z   1
loop_
 _symmetry_equiv_pos_site_id
 _symmetry_equiv_pos_as_xyz
  1  'x, y, z'
loop_
 _atom_site_type_symbol
 _atom_site_label
 _atom_site_symmetry_multiplicity
 _atom_site_fract_x
 _atom_site_fract_y
 _atom_site_fract_z
 _atom_site_occupancy
  Mn  Mn0  1  0.68507970  0.81862391  0.64959925  1
  V  V1  1  0.17991880  0.07315410  0.14663549  1
  V  V2  1  0.68839348  0.31215434  0.65923913  1
  Cr  Cr3  1  0.18440803  0.56474766  0.15890613  1
