# generated using pymatgen
data_MnZnIr2
_symmetry_space_group_name_H-M   'P 1'
_cell_length_a   4.24200890
_cell_length_b   7.29136615
_cell_length_c   3.04043032
_cell_angle_alpha   65.94464390
_cell_angle_beta   45.17722580
_cell_angle_gamma   55.00612046
_symmetry_Int_Tables_number   1
_chemical_formula_structural   MnZnIr2
_chemical_formula_sum   'Mn1 Zn1 Ir2'
_cell_volume   54.64236537
_cell_formula_units_Z   1
loop_
 _symmetry_equiv_pos_site_id
 _symmetry_equiv_pos_as_xyz
  1  'x, y, z'
loop_
 _atom_site_type_symbol
 _atom_site_label
 _atom_site_symmetry_multiplicity
 _atom_site_fract_x
 _atom_site_fract_y
 _atom_site_fract_z
 _atom_site_occupancy
  Mn  Mn0  1  0.29939325  0.25905897  -0.13696720  1
  Zn  Zn1  1  0.79905474  0.75901085  0.86323453  1
  Ir  Ir2  1  0.04125463  0.01681390  -0.13610915  1
  Ir  Ir3  1  0.55646739  0.50148628  0.86349182  1
