# generated using pymatgen
data_MoAs2
_symmetry_space_group_name_H-M   'P 1'
_cell_length_a   4.43757372
_cell_length_b   4.44492830
_cell_length_c   8.81712926
_cell_angle_alpha   68.25998812
_cell_angle_beta   55.24501257
_cell_angle_gamma   58.70456689
_symmetry_Int_Tables_number   1
_chemical_formula_structural   MoAs2
_chemical_formula_sum   'Mo2 As4'
_cell_volume   121.41285444
_cell_formula_units_Z   2
loop_
 _symmetry_equiv_pos_site_id
 _symmetry_equiv_pos_as_xyz
  1  'x, y, z'
loop_
 _atom_site_type_symbol
 _atom_site_label
 _atom_site_symmetry_multiplicity
 _atom_site_fract_x
 _atom_site_fract_y
 _atom_site_fract_z
 _atom_site_occupancy
  Mo  Mo0  1  -0.00518172  0.56028152  0.81026219  1
  Mo  Mo1  1  0.46406909  0.17654607  -0.01083652  1
  As  As2  1  0.29480465  0.88197439  0.83001294  1
  As  As3  1  0.56539955  0.46375731  0.15486075  1
  As  As4  1  -0.02805687  0.03935311  0.32569671  1
  As  As5  1  0.85269530  0.26308760  0.62173393  1
