# generated using pymatgen
data_Na3SbSe4
_symmetry_space_group_name_H-M   'P 1'
_cell_length_a   6.45957939
_cell_length_b   9.23489472
_cell_length_c   6.18182615
_cell_angle_alpha   116.06702680
_cell_angle_beta   107.24520297
_cell_angle_gamma   118.46730537
_symmetry_Int_Tables_number   1
_chemical_formula_structural   Na3SbSe4
_chemical_formula_sum   'Na3 Sb1 Se4'
_cell_volume   223.59204576
_cell_formula_units_Z   1
loop_
 _symmetry_equiv_pos_site_id
 _symmetry_equiv_pos_as_xyz
  1  'x, y, z'
loop_
 _atom_site_type_symbol
 _atom_site_label
 _atom_site_symmetry_multiplicity
 _atom_site_fract_x
 _atom_site_fract_y
 _atom_site_fract_z
 _atom_site_occupancy
  Na  Na0  1  0.00417530  0.48699126  0.48301982  1
  Na  Na1  1  0.49577964  -0.01946296  0.47963258  1
  Na  Na2  1  0.46507307  0.47631267  0.04408568  1
  Sb  Sb3  1  -0.01511359  -0.02938944  0.02756828  1
  Se  Se4  1  0.60013410  0.50834710  0.63610105  1
  Se  Se5  1  -0.09888800  0.48235139  -0.07256900  1
  Se  Se6  1  0.58342197  -0.02062068  -0.01626430  1
  Se  Se7  1  -0.02633250  -0.02265934  0.61325588  1
