# generated using pymatgen
data_Na3Sb
_symmetry_space_group_name_H-M   'P 1'
_cell_length_a   5.58348039
_cell_length_b   5.20619668
_cell_length_c   11.01283469
_cell_angle_alpha   90.61701851
_cell_angle_beta   103.59422029
_cell_angle_gamma   121.66580504
_symmetry_Int_Tables_number   1
_chemical_formula_structural   Na3Sb
_chemical_formula_sum   'Na6 Sb2'
_cell_volume   261.33054321
_cell_formula_units_Z   2
loop_
 _symmetry_equiv_pos_site_id
 _symmetry_equiv_pos_as_xyz
  1  'x, y, z'
loop_
 _atom_site_type_symbol
 _atom_site_label
 _atom_site_symmetry_multiplicity
 _atom_site_fract_x
 _atom_site_fract_y
 _atom_site_fract_z
 _atom_site_occupancy
  Na  Na0  1  0.61744272  0.76059375  0.96562899  1
  Na  Na1  1  0.77524690  0.56551715  0.48995758  1
  Na  Na2  1  -0.03082116  0.12403467  0.32376628  1
  Na  Na3  1  0.08922476  -0.14240331  0.80707331  1
  Na  Na4  1  0.28273451  0.41007560  0.63933574  1
  Na  Na5  1  0.40255042  0.15270652  0.15895293  1
  Sb  Sb6  1  0.68174370  0.13002157  0.71596311  1
  Sb  Sb7  1  0.38318816  0.85160405  0.42315205  1
