# generated using pymatgen
data_NaAc
_symmetry_space_group_name_H-M   'P 1'
_cell_length_a   6.26636333
_cell_length_b   4.59974068
_cell_length_c   6.20995816
_cell_angle_alpha   42.39825098
_cell_angle_beta   57.09652239
_cell_angle_gamma   42.78338433
_symmetry_Int_Tables_number   1
_chemical_formula_structural   NaAc
_chemical_formula_sum   'Na1 Ac1'
_cell_volume   81.97701177
_cell_formula_units_Z   1
loop_
 _symmetry_equiv_pos_site_id
 _symmetry_equiv_pos_as_xyz
  1  'x, y, z'
loop_
 _atom_site_type_symbol
 _atom_site_label
 _atom_site_symmetry_multiplicity
 _atom_site_fract_x
 _atom_site_fract_y
 _atom_site_fract_z
 _atom_site_occupancy
  Na  Na0  1  0.00603235  0.04684907  -0.00445617  1
  Ac  Ac1  1  0.50601765  0.54721093  0.49438617  1
