# generated using pymatgen
data_NaCd2Pt
_symmetry_space_group_name_H-M   'P 1'
_cell_length_a   4.63026273
_cell_length_b   4.70688538
_cell_length_c   7.46283737
_cell_angle_alpha   51.12559294
_cell_angle_beta   51.92269287
_cell_angle_gamma   59.81550328
_symmetry_Int_Tables_number   1
_chemical_formula_structural   NaCd2Pt
_chemical_formula_sum   'Na1 Cd2 Pt1'
_cell_volume   97.88242821
_cell_formula_units_Z   1
loop_
 _symmetry_equiv_pos_site_id
 _symmetry_equiv_pos_as_xyz
  1  'x, y, z'
loop_
 _atom_site_type_symbol
 _atom_site_label
 _atom_site_symmetry_multiplicity
 _atom_site_fract_x
 _atom_site_fract_y
 _atom_site_fract_z
 _atom_site_occupancy
  Na  Na0  1  0.07919580  0.09340502  0.24404388  1
  Cd  Cd1  1  0.50511041  0.50137525  0.62215360  1
  Cd  Cd2  1  -0.02400680  -0.02494875  -0.08681739  1
  Pt  Pt3  1  0.71651059  0.70939848  0.80769991  1
