# generated using pymatgen
data_NaHgPd2
_symmetry_space_group_name_H-M   'P 1'
_cell_length_a   5.10297375
_cell_length_b   5.11027734
_cell_length_c   8.37932943
_cell_angle_alpha   34.97521014
_cell_angle_beta   34.92305059
_cell_angle_gamma   47.89988031
_symmetry_Int_Tables_number   1
_chemical_formula_structural   NaHgPd2
_chemical_formula_sum   'Na1 Hg1 Pd2'
_cell_volume   71.70558281
_cell_formula_units_Z   1
loop_
 _symmetry_equiv_pos_site_id
 _symmetry_equiv_pos_as_xyz
  1  'x, y, z'
loop_
 _atom_site_type_symbol
 _atom_site_label
 _atom_site_symmetry_multiplicity
 _atom_site_fract_x
 _atom_site_fract_y
 _atom_site_fract_z
 _atom_site_occupancy
  Na  Na0  1  0.81492733  0.86540034  0.68832677  1
  Hg  Hg1  1  0.31399482  0.36402021  -0.06077669  1
  Pd  Pd2  1  -0.18492186  -0.13454499  0.18727117  1
  Pd  Pd3  1  0.31459971  0.36389444  0.43873875  1
