# generated using pymatgen
data_NaInTe2
_symmetry_space_group_name_H-M   'P 1'
_cell_length_a   8.27415796
_cell_length_b   8.32979784
_cell_length_c   6.15919974
_cell_angle_alpha   107.90600791
_cell_angle_beta   102.19758573
_cell_angle_gamma   119.00626302
_symmetry_Int_Tables_number   1
_chemical_formula_structural   NaInTe2
_chemical_formula_sum   'Na2 In2 Te4'
_cell_volume   318.43441201
_cell_formula_units_Z   2
loop_
 _symmetry_equiv_pos_site_id
 _symmetry_equiv_pos_as_xyz
  1  'x, y, z'
loop_
 _atom_site_type_symbol
 _atom_site_label
 _atom_site_symmetry_multiplicity
 _atom_site_fract_x
 _atom_site_fract_y
 _atom_site_fract_z
 _atom_site_occupancy
  Na  Na0  1  -0.00896286  0.13068402  -0.20472661  1
  Na  Na1  1  0.84808987  0.74066617  0.12021058  1
  In  In2  1  0.63719607  0.22416742  0.26410635  1
  In  In3  1  0.21598429  0.68917354  0.73984999  1
  Te  Te4  1  0.43502177  0.24505907  0.85043811  1
  Te  Te5  1  -0.02496999  0.21450482  0.32267075  1
  Te  Te6  1  0.81952980  0.65226872  0.58079256  1
  Te  Te7  1  0.34708106  0.94005625  0.38646827  1
