# generated using pymatgen
data_NaSbPd
_symmetry_space_group_name_H-M   'P 1'
_cell_length_a   4.69147480
_cell_length_b   4.69613982
_cell_length_c   6.99199886
_cell_angle_alpha   89.95371710
_cell_angle_beta   90.01941974
_cell_angle_gamma   119.86554214
_symmetry_Int_Tables_number   1
_chemical_formula_structural   NaSbPd
_chemical_formula_sum   'Na2 Sb2 Pd2'
_cell_volume   133.58849925
_cell_formula_units_Z   2
loop_
 _symmetry_equiv_pos_site_id
 _symmetry_equiv_pos_as_xyz
  1  'x, y, z'
loop_
 _atom_site_type_symbol
 _atom_site_label
 _atom_site_symmetry_multiplicity
 _atom_site_fract_x
 _atom_site_fract_y
 _atom_site_fract_z
 _atom_site_occupancy
  Na  Na0  1  0.01355755  0.03761108  0.49406397  1
  Na  Na1  1  0.01159747  0.03869202  -0.00529933  1
  Sb  Sb2  1  0.34732154  0.70486188  0.71498954  1
  Sb  Sb3  1  0.67978609  0.37070610  0.27407735  1
  Pd  Pd4  1  0.34663560  0.70454387  0.30790602  1
  Pd  Pd5  1  0.68040175  0.37044505  0.68150245  1
