# generated using pymatgen
data_NaSn2Pd3
_symmetry_space_group_name_H-M   'P 1'
_cell_length_a   5.32233844
_cell_length_b   5.32798132
_cell_length_c   5.29224667
_cell_angle_alpha   115.72011169
_cell_angle_beta   64.17994809
_cell_angle_gamma   116.15882143
_symmetry_Int_Tables_number   1
_chemical_formula_structural   NaSn2Pd3
_chemical_formula_sum   'Na1 Sn2 Pd3'
_cell_volume   115.69000743
_cell_formula_units_Z   1
loop_
 _symmetry_equiv_pos_site_id
 _symmetry_equiv_pos_as_xyz
  1  'x, y, z'
loop_
 _atom_site_type_symbol
 _atom_site_label
 _atom_site_symmetry_multiplicity
 _atom_site_fract_x
 _atom_site_fract_y
 _atom_site_fract_z
 _atom_site_occupancy
  Na  Na0  1  -0.02681548  0.10139954  0.29246448  1
  Sn  Sn1  1  0.22129608  0.84919724  0.54672723  1
  Sn  Sn2  1  0.60718525  0.47053802  -0.06932926  1
  Pd  Pd3  1  0.65832247  -0.03395843  0.86302023  1
  Pd  Pd4  1  0.54750453  0.40738948  0.42829751  1
  Pd  Pd5  1  0.10860714  0.52871415  -0.01879019  1
