# generated using pymatgen
data_NaTmS2
_symmetry_space_group_name_H-M   'P 1'
_cell_length_a   5.37104556
_cell_length_b   6.67274491
_cell_length_c   6.67352892
_cell_angle_alpha   49.63281704
_cell_angle_beta   36.42325774
_cell_angle_gamma   36.43406590
_symmetry_Int_Tables_number   1
_chemical_formula_structural   NaTmS2
_chemical_formula_sum   'Na1 Tm1 S2'
_cell_volume   84.33939842
_cell_formula_units_Z   1
loop_
 _symmetry_equiv_pos_site_id
 _symmetry_equiv_pos_as_xyz
  1  'x, y, z'
loop_
 _atom_site_type_symbol
 _atom_site_label
 _atom_site_symmetry_multiplicity
 _atom_site_fract_x
 _atom_site_fract_y
 _atom_site_fract_z
 _atom_site_occupancy
  Na  Na0  1  0.38499423  0.57298151  0.60366684  1
  Tm  Tm1  1  -0.11688156  0.07355533  0.10635370  1
  S  S2  1  0.38348751  0.07356532  0.10526106  1
  S  S3  1  0.88072981  0.57373784  0.60719841  1
