# generated using pymatgen
data_Nb2Al3Ir
_symmetry_space_group_name_H-M   'P 1'
_cell_length_a   5.57947587
_cell_length_b   5.13734389
_cell_length_c   8.10185714
_cell_angle_alpha   84.83991553
_cell_angle_beta   97.45825020
_cell_angle_gamma   122.02634961
_symmetry_Int_Tables_number   1
_chemical_formula_structural   Nb2Al3Ir
_chemical_formula_sum   'Nb4 Al6 Ir2'
_cell_volume   195.15759894
_cell_formula_units_Z   2
loop_
 _symmetry_equiv_pos_site_id
 _symmetry_equiv_pos_as_xyz
  1  'x, y, z'
loop_
 _atom_site_type_symbol
 _atom_site_label
 _atom_site_symmetry_multiplicity
 _atom_site_fract_x
 _atom_site_fract_y
 _atom_site_fract_z
 _atom_site_occupancy
  Nb  Nb0  1  0.44305718  0.55864147  0.49385980  1
  Nb  Nb1  1  0.94312213  0.56636652  0.47630913  1
  Nb  Nb2  1  0.57560056  0.06273044  0.67274190  1
  Nb  Nb3  1  0.39540460  0.57242272  0.14819822  1
  Al  Al4  1  0.91495702  0.06758643  0.31962659  1
  Al  Al5  1  0.87531222  0.53643942  0.12543085  1
  Al  Al6  1  0.41880255  0.06674825  0.32259517  1
  Al  Al7  1  0.31414430  0.05433527  0.98194722  1
  Al  Al8  1  0.13481854  0.53206159  0.80800154  1
  Al  Al9  1  0.65024110  0.57892284  0.81532501  1
  Ir  Ir10  1  0.06877475  0.04589297  0.66590533  1
  Ir  Ir11  1  -0.15630495  0.05104208  -0.01104076  1
