# generated using pymatgen
data_Nb2VIr
_symmetry_space_group_name_H-M   'P 1'
_cell_length_a   4.49613066
_cell_length_b   4.49710258
_cell_length_c   4.50201557
_cell_angle_alpha   60.03045254
_cell_angle_beta   60.02623025
_cell_angle_gamma   59.99565595
_symmetry_Int_Tables_number   1
_chemical_formula_structural   Nb2VIr
_chemical_formula_sum   'Nb2 V1 Ir1'
_cell_volume   64.39250943
_cell_formula_units_Z   1
loop_
 _symmetry_equiv_pos_site_id
 _symmetry_equiv_pos_as_xyz
  1  'x, y, z'
loop_
 _atom_site_type_symbol
 _atom_site_label
 _atom_site_symmetry_multiplicity
 _atom_site_fract_x
 _atom_site_fract_y
 _atom_site_fract_z
 _atom_site_occupancy
  Nb  Nb0  1  0.27471329  0.15652039  0.23714660  1
  Nb  Nb1  1  0.77401694  0.65609291  0.73820750  1
  V  V2  1  0.02422446  -0.09366730  -0.01230500  1
  Ir  Ir3  1  0.52464531  0.40629400  0.48764090  1
