# generated using pymatgen
data_NbAl2Zn
_symmetry_space_group_name_H-M   'P 1'
_cell_length_a   4.01968125
_cell_length_b   4.01524415
_cell_length_c   3.88304382
_cell_angle_alpha   90.03180183
_cell_angle_beta   89.97905912
_cell_angle_gamma   90.00785436
_symmetry_Int_Tables_number   1
_chemical_formula_structural   NbAl2Zn
_chemical_formula_sum   'Nb1 Al2 Zn1'
_cell_volume   62.67231909
_cell_formula_units_Z   1
loop_
 _symmetry_equiv_pos_site_id
 _symmetry_equiv_pos_as_xyz
  1  'x, y, z'
loop_
 _atom_site_type_symbol
 _atom_site_label
 _atom_site_symmetry_multiplicity
 _atom_site_fract_x
 _atom_site_fract_y
 _atom_site_fract_z
 _atom_site_occupancy
  Nb  Nb0  1  -0.01046536  -0.00881177  0.04583622  1
  Al  Al1  1  -0.01019700  0.49111897  0.54562141  1
  Al  Al2  1  0.48970434  -0.00913298  0.54585960  1
  Zn  Zn3  1  0.48937801  0.49081577  0.04549277  1
