# generated using pymatgen
data_NbAlCu
_symmetry_space_group_name_H-M   'P 1'
_cell_length_a   5.12143474
_cell_length_b   5.21735258
_cell_length_c   8.32040693
_cell_angle_alpha   76.58761718
_cell_angle_beta   103.81244516
_cell_angle_gamma   121.29446954
_symmetry_Int_Tables_number   1
_chemical_formula_structural   NbAlCu
_chemical_formula_sum   'Nb4 Al4 Cu4'
_cell_volume   182.91655342
_cell_formula_units_Z   4
loop_
 _symmetry_equiv_pos_site_id
 _symmetry_equiv_pos_as_xyz
  1  'x, y, z'
loop_
 _atom_site_type_symbol
 _atom_site_label
 _atom_site_symmetry_multiplicity
 _atom_site_fract_x
 _atom_site_fract_y
 _atom_site_fract_z
 _atom_site_occupancy
  Nb  Nb0  1  0.56580441  0.25757384  0.53846575  1
  Nb  Nb1  1  0.18260644  0.62078425  0.39702094  1
  Nb  Nb2  1  0.55502618  0.14249949  0.18487563  1
  Nb  Nb3  1  0.67734866  0.17654267  0.89441089  1
  Al  Al4  1  0.86330080  0.95786109  0.46538784  1
  Al  Al5  1  0.97037935  0.74696105  0.02346425  1
  Al  Al6  1  0.14281372  0.22850687  0.73533590  1
  Al  Al7  1  0.12242322  0.71923484  0.71195191  1
  Cu  Cu8  1  0.62898271  0.72444362  0.72544898  1
  Cu  Cu9  1  0.33823397  0.53895667  -0.02395352  1
  Cu  Cu10  1  0.64640649  0.65926127  0.24293319  1
  Cu  Cu11  1  0.10271403  0.18803434  0.21764825  1
