# generated using pymatgen
data_NbInRu2
_symmetry_space_group_name_H-M   'P 1'
_cell_length_a   5.42798406
_cell_length_b   3.60967905
_cell_length_c   5.22605512
_cell_angle_alpha   69.83681917
_cell_angle_beta   58.75582607
_cell_angle_gamma   48.47802751
_symmetry_Int_Tables_number   1
_chemical_formula_structural   NbInRu2
_chemical_formula_sum   'Nb1 In1 Ru2'
_cell_volume   65.54470751
_cell_formula_units_Z   1
loop_
 _symmetry_equiv_pos_site_id
 _symmetry_equiv_pos_as_xyz
  1  'x, y, z'
loop_
 _atom_site_type_symbol
 _atom_site_label
 _atom_site_symmetry_multiplicity
 _atom_site_fract_x
 _atom_site_fract_y
 _atom_site_fract_z
 _atom_site_occupancy
  Nb  Nb0  1  0.25834694  0.63406714  0.56787542  1
  In  In1  1  0.00071829  0.13575354  0.08143362  1
  Ru  Ru2  1  0.75005103  0.63472841  0.58433720  1
  Ru  Ru3  1  0.49268374  0.13601091  0.09794377  1
