# generated using pymatgen
data_NdFeSi
_symmetry_space_group_name_H-M   'P 1'
_cell_length_a   4.04518690
_cell_length_b   5.32554067
_cell_length_c   6.03435298
_cell_angle_alpha   103.19509056
_cell_angle_beta   109.62673932
_cell_angle_gamma   89.98260705
_symmetry_Int_Tables_number   1
_chemical_formula_structural   NdFeSi
_chemical_formula_sum   'Nd2 Fe2 Si2'
_cell_volume   118.79736614
_cell_formula_units_Z   2
loop_
 _symmetry_equiv_pos_site_id
 _symmetry_equiv_pos_as_xyz
  1  'x, y, z'
loop_
 _atom_site_type_symbol
 _atom_site_label
 _atom_site_symmetry_multiplicity
 _atom_site_fract_x
 _atom_site_fract_y
 _atom_site_fract_z
 _atom_site_occupancy
  Nd  Nd0  1  0.06588021  0.33942878  0.73341700  1
  Nd  Nd1  1  0.84798705  0.71732878  0.29107665  1
  Fe  Fe2  1  0.74974841  0.14158635  0.09846207  1
  Fe  Fe3  1  0.16484170  0.91551362  -0.07360261  1
  Si  Si4  1  0.56740010  0.82185505  0.73194411  1
  Si  Si5  1  0.34651252  0.23499741  0.29240278  1
