# generated using pymatgen
data_NdMgAg
_symmetry_space_group_name_H-M   'P 1'
_cell_length_a   7.51818040
_cell_length_b   8.35695476
_cell_length_c   4.24979898
_cell_angle_alpha   91.88035106
_cell_angle_beta   91.08162562
_cell_angle_gamma   119.65286925
_symmetry_Int_Tables_number   1
_chemical_formula_structural   NdMgAg
_chemical_formula_sum   'Nd3 Mg3 Ag3'
_cell_volume   231.72841934
_cell_formula_units_Z   3
loop_
 _symmetry_equiv_pos_site_id
 _symmetry_equiv_pos_as_xyz
  1  'x, y, z'
loop_
 _atom_site_type_symbol
 _atom_site_label
 _atom_site_symmetry_multiplicity
 _atom_site_fract_x
 _atom_site_fract_y
 _atom_site_fract_z
 _atom_site_occupancy
  Nd  Nd0  1  0.56783608  0.01758953  -0.02100234  1
  Nd  Nd1  1  -0.06583566  0.55916473  -0.02514796  1
  Nd  Nd2  1  0.47121265  0.33982413  -0.54960751  1
  Mg  Mg3  1  0.17914942  -0.09018828  0.48516775  1
  Mg  Mg4  1  -0.02820565  0.25260247  0.49053078  1
  Mg  Mg5  1  0.75984621  0.81442648  0.48161835  1
  Ag  Ag6  1  0.29334294  0.64537188  0.47008280  1
  Ag  Ag7  1  0.51417151  0.61460947  0.96905068  1
  Ag  Ag8  1  0.05760251  0.06178958  -0.01352253  1
