# generated using pymatgen
data_NdP5
_symmetry_space_group_name_H-M   'P 1'
_cell_length_a   7.03085686
_cell_length_b   4.82636059
_cell_length_c   8.37664289
_cell_angle_alpha   90.52572420
_cell_angle_beta   100.30376538
_cell_angle_gamma   110.18900819
_symmetry_Int_Tables_number   1
_chemical_formula_structural   NdP5
_chemical_formula_sum   'Nd2 P10'
_cell_volume   261.70666734
_cell_formula_units_Z   2
loop_
 _symmetry_equiv_pos_site_id
 _symmetry_equiv_pos_as_xyz
  1  'x, y, z'
loop_
 _atom_site_type_symbol
 _atom_site_label
 _atom_site_symmetry_multiplicity
 _atom_site_fract_x
 _atom_site_fract_y
 _atom_site_fract_z
 _atom_site_occupancy
  Nd  Nd0  1  -0.04528811  0.10607202  0.19221736  1
  Nd  Nd1  1  0.07861643  0.80931683  0.66563336  1
  P  P2  1  0.20358910  0.72702529  0.34598627  1
  P  P3  1  0.73149405  0.12793494  0.57828585  1
  P  P4  1  0.54001266  0.02863008  0.32906531  1
  P  P5  1  0.29541047  0.14516485  0.00318595  1
  P  P6  1  0.53076250  -0.10146039  0.75566650  1
  P  P7  1  0.75506495  0.70555570  -0.11638660  1
  P  P8  1  0.69567814  0.72723366  0.42519498  1
  P  P9  1  0.11883727  0.39491210  0.90401213  1
  P  P10  1  0.24725856  0.40068852  0.49622936  1
  P  P11  1  0.61988397  0.25985641  -0.04495048  1
