# generated using pymatgen
data_NdP
_symmetry_space_group_name_H-M   'P 1'
_cell_length_a   4.04207655
_cell_length_b   4.03759694
_cell_length_c   3.75723554
_cell_angle_alpha   80.43780752
_cell_angle_beta   80.57882012
_cell_angle_gamma   62.11345037
_symmetry_Int_Tables_number   1
_chemical_formula_structural   NdP
_chemical_formula_sum   'Nd1 P1'
_cell_volume   53.18466343
_cell_formula_units_Z   1
loop_
 _symmetry_equiv_pos_site_id
 _symmetry_equiv_pos_as_xyz
  1  'x, y, z'
loop_
 _atom_site_type_symbol
 _atom_site_label
 _atom_site_symmetry_multiplicity
 _atom_site_fract_x
 _atom_site_fract_y
 _atom_site_fract_z
 _atom_site_occupancy
  Nd  Nd0  1  0.00507604  -0.00098456  -0.04583019  1
  P  P1  1  0.37775396  0.36979456  0.47785019  1
