# generated using pymatgen
data_NdSi2
_symmetry_space_group_name_H-M   'P 1'
_cell_length_a   6.14196739
_cell_length_b   4.00071655
_cell_length_c   5.84975014
_cell_angle_alpha   109.93791307
_cell_angle_beta   102.59475483
_cell_angle_gamma   90.52400483
_symmetry_Int_Tables_number   1
_chemical_formula_structural   NdSi2
_chemical_formula_sum   'Nd2 Si4'
_cell_volume   131.32721904
_cell_formula_units_Z   2
loop_
 _symmetry_equiv_pos_site_id
 _symmetry_equiv_pos_as_xyz
  1  'x, y, z'
loop_
 _atom_site_type_symbol
 _atom_site_label
 _atom_site_symmetry_multiplicity
 _atom_site_fract_x
 _atom_site_fract_y
 _atom_site_fract_z
 _atom_site_occupancy
  Nd  Nd0  1  0.78083461  0.62448841  0.24173432  1
  Nd  Nd1  1  0.18810005  0.38628997  0.75060447  1
  Si  Si2  1  0.81686104  0.92404485  0.83878647  1
  Si  Si3  1  0.64978319  0.31700756  0.62861302  1
  Si  Si4  1  0.31965615  0.69369814  0.36480994  1
  Si  Si5  1  0.15394496  0.08667107  0.15444178  1
