# generated using pymatgen
data_NdSi2Ir3
_symmetry_space_group_name_H-M   'P 1'
_cell_length_a   5.62216080
_cell_length_b   6.55447315
_cell_length_c   7.73870916
_cell_angle_alpha   116.51020174
_cell_angle_beta   97.07600106
_cell_angle_gamma   112.43179469
_symmetry_Int_Tables_number   1
_chemical_formula_structural   NdSi2Ir3
_chemical_formula_sum   'Nd2 Si4 Ir6'
_cell_volume   220.53025393
_cell_formula_units_Z   2
loop_
 _symmetry_equiv_pos_site_id
 _symmetry_equiv_pos_as_xyz
  1  'x, y, z'
loop_
 _atom_site_type_symbol
 _atom_site_label
 _atom_site_symmetry_multiplicity
 _atom_site_fract_x
 _atom_site_fract_y
 _atom_site_fract_z
 _atom_site_occupancy
  Nd  Nd0  1  0.08456812  0.85770775  0.48039556  1
  Nd  Nd1  1  0.55250557  0.11375737  0.02528202  1
  Si  Si2  1  -0.01577164  -0.04782790  0.14773092  1
  Si  Si3  1  0.88126204  0.63606789  0.73503844  1
  Si  Si4  1  0.28075548  0.47221688  0.24832778  1
  Si  Si5  1  0.75776572  0.17746743  0.65188206  1
  Ir  Ir6  1  0.55045675  0.75561691  0.60314713  1
  Ir  Ir7  1  0.06014424  0.57689778  -0.00559322  1
  Ir  Ir8  1  0.47818226  0.26519869  0.43418660  1
  Ir  Ir9  1  0.03363430  0.10719622  0.91068155  1
  Ir  Ir10  1  0.04030049  0.36316557  0.48261814  1
  Ir  Ir11  1  0.58935668  0.85555542  0.25525303  1
