# generated using pymatgen
data_NdSi2Ag
_symmetry_space_group_name_H-M   'P 1'
_cell_length_a   4.06015151
_cell_length_b   3.95526932
_cell_length_c   11.62764801
_cell_angle_alpha   99.95845769
_cell_angle_beta   106.93179679
_cell_angle_gamma   89.60109250
_symmetry_Int_Tables_number   1
_chemical_formula_structural   NdSi2Ag
_chemical_formula_sum   'Nd2 Si4 Ag2'
_cell_volume   175.75587434
_cell_formula_units_Z   2
loop_
 _symmetry_equiv_pos_site_id
 _symmetry_equiv_pos_as_xyz
  1  'x, y, z'
loop_
 _atom_site_type_symbol
 _atom_site_label
 _atom_site_symmetry_multiplicity
 _atom_site_fract_x
 _atom_site_fract_y
 _atom_site_fract_z
 _atom_site_occupancy
  Nd  Nd0  1  0.73326135  0.31634240  0.17199687  1
  Nd  Nd1  1  0.45336303  0.65186299  0.84189404  1
  Si  Si2  1  0.04007577  0.20341611  0.94349255  1
  Si  Si3  1  0.14364995  0.76444814  0.06632867  1
  Si  Si4  1  0.79834022  0.65237845  0.63477351  1
  Si  Si5  1  0.32515740  0.87202705  0.28332464  1
  Ag  Ag6  1  0.23067953  0.05291683  0.58666587  1
  Ag  Ag7  1  0.45714275  0.44059803  0.42236386  1
