# generated using pymatgen
data_NdSi3Rh
_symmetry_space_group_name_H-M   'P 1'
_cell_length_a   8.36965383
_cell_length_b   4.31292572
_cell_length_c   8.25594541
_cell_angle_alpha   131.13174071
_cell_angle_beta   149.93491382
_cell_angle_gamma   69.95961514
_symmetry_Int_Tables_number   1
_chemical_formula_structural   NdSi3Rh
_chemical_formula_sum   'Nd1 Si3 Rh1'
_cell_volume   89.91839176
_cell_formula_units_Z   1
loop_
 _symmetry_equiv_pos_site_id
 _symmetry_equiv_pos_as_xyz
  1  'x, y, z'
loop_
 _atom_site_type_symbol
 _atom_site_label
 _atom_site_symmetry_multiplicity
 _atom_site_fract_x
 _atom_site_fract_y
 _atom_site_fract_z
 _atom_site_occupancy
  Nd  Nd0  1  0.80917436  0.64449097  -0.26841021  1
  Si  Si1  1  0.35850168  0.49788207  -0.01789272  1
  Si  Si2  1  0.26633760  0.77198650  0.48078418  1
  Si  Si3  1  0.00400146  0.55999552  0.48270278  1
  Rh  Rh4  1  0.65276491  0.67869494  0.01405598  1
