# generated using pymatgen
data_NdSi2Ru
_symmetry_space_group_name_H-M   'P 1'
_cell_length_a   5.96829698
_cell_length_b   4.02426868
_cell_length_c   7.99021764
_cell_angle_alpha   59.75115015
_cell_angle_beta   94.56294523
_cell_angle_gamma   70.35541879
_symmetry_Int_Tables_number   1
_chemical_formula_structural   NdSi2Ru
_chemical_formula_sum   'Nd2 Si4 Ru2'
_cell_volume   148.64418651
_cell_formula_units_Z   2
loop_
 _symmetry_equiv_pos_site_id
 _symmetry_equiv_pos_as_xyz
  1  'x, y, z'
loop_
 _atom_site_type_symbol
 _atom_site_label
 _atom_site_symmetry_multiplicity
 _atom_site_fract_x
 _atom_site_fract_y
 _atom_site_fract_z
 _atom_site_occupancy
  Nd  Nd0  1  0.13403461  0.53188001  0.76892588  1
  Nd  Nd1  1  0.68654232  0.36363214  0.16075481  1
  Si  Si2  1  0.11955316  0.36984974  0.43815173  1
  Si  Si3  1  0.70073464  0.52595184  0.49126372  1
  Si  Si4  1  0.70051573  0.17896996  0.83808537  1
  Si  Si5  1  0.11957192  -0.28300928  0.09121107  1
  Ru  Ru6  1  0.55234162  0.96767925  0.62342830  1
  Ru  Ru7  1  0.26780600  -0.07155367  0.30562912  1
