# generated using pymatgen
data_NdSi3Os
_symmetry_space_group_name_H-M   'P 1'
_cell_length_a   5.78913720
_cell_length_b   6.08382252
_cell_length_c   8.08184455
_cell_angle_alpha   133.37300871
_cell_angle_beta   152.36244637
_cell_angle_gamma   42.83023331
_symmetry_Int_Tables_number   1
_chemical_formula_structural   NdSi3Os
_chemical_formula_sum   'Nd1 Si3 Os1'
_cell_volume   89.14240601
_cell_formula_units_Z   1
loop_
 _symmetry_equiv_pos_site_id
 _symmetry_equiv_pos_as_xyz
  1  'x, y, z'
loop_
 _atom_site_type_symbol
 _atom_site_label
 _atom_site_symmetry_multiplicity
 _atom_site_fract_x
 _atom_site_fract_y
 _atom_site_fract_z
 _atom_site_occupancy
  Nd  Nd0  1  -0.20151497  0.07959141  -0.15187631  1
  Si  Si1  1  0.50529895  0.47623031  0.21612548  1
  Si  Si2  1  0.14295835  0.60030215  0.47016640  1
  Si  Si3  1  0.89762595  0.18704647  0.58384098  1
  Os  Os4  1  0.74375173  0.87063966  0.09363344  1
