# generated using pymatgen
data_NdZnCuP2
_symmetry_space_group_name_H-M   'P 1'
_cell_length_a   4.20695349
_cell_length_b   5.91730923
_cell_length_c   4.04606644
_cell_angle_alpha   90.19892914
_cell_angle_beta   89.99298632
_cell_angle_gamma   103.20200279
_symmetry_Int_Tables_number   1
_chemical_formula_structural   NdZnCuP2
_chemical_formula_sum   'Nd1 Zn1 Cu1 P2'
_cell_volume   98.05954170
_cell_formula_units_Z   1
loop_
 _symmetry_equiv_pos_site_id
 _symmetry_equiv_pos_as_xyz
  1  'x, y, z'
loop_
 _atom_site_type_symbol
 _atom_site_label
 _atom_site_symmetry_multiplicity
 _atom_site_fract_x
 _atom_site_fract_y
 _atom_site_fract_z
 _atom_site_occupancy
  Nd  Nd0  1  0.29242769  0.61209706  0.77381374  1
  Zn  Zn1  1  -0.07623193  -0.09087682  0.27553201  1
  Cu  Cu2  1  0.67549113  0.24357457  0.76669075  1
  P  P3  1  0.74232913  0.49741741  0.27230839  1
  P  P4  1  0.12213399  0.07770779  0.77612511  1
