# generated using pymatgen
data_Ni2Ge2H
_symmetry_space_group_name_H-M   'P 1'
_cell_length_a   4.75876882
_cell_length_b   4.16374822
_cell_length_c   4.28150733
_cell_angle_alpha   109.36036629
_cell_angle_beta   122.22587522
_cell_angle_gamma   88.60038474
_symmetry_Int_Tables_number   1
_chemical_formula_structural   Ni2Ge2H
_chemical_formula_sum   'Ni2 Ge2 H1'
_cell_volume   66.46316209
_cell_formula_units_Z   1
loop_
 _symmetry_equiv_pos_site_id
 _symmetry_equiv_pos_as_xyz
  1  'x, y, z'
loop_
 _atom_site_type_symbol
 _atom_site_label
 _atom_site_symmetry_multiplicity
 _atom_site_fract_x
 _atom_site_fract_y
 _atom_site_fract_z
 _atom_site_occupancy
  Ni  Ni0  1  0.83518697  0.23353014  0.48960588  1
  Ni  Ni1  1  0.22932018  0.82405235  0.72639170  1
  Ge  Ge2  1  0.60539705  0.65145771  0.25184625  1
  Ge  Ge3  1  0.30864973  0.22185988  0.44292304  1
  H  H4  1  0.02370608  0.11005993  -0.12446687  1
