# generated using pymatgen
data_Ni5H
_symmetry_space_group_name_H-M   'P 1'
_cell_length_a   3.41043847
_cell_length_b   5.46868082
_cell_length_c   3.50364363
_cell_angle_alpha   107.49661082
_cell_angle_beta   89.14929899
_cell_angle_gamma   91.14352385
_symmetry_Int_Tables_number   1
_chemical_formula_structural   Ni5H
_chemical_formula_sum   'Ni5 H1'
_cell_volume   62.30675402
_cell_formula_units_Z   1
loop_
 _symmetry_equiv_pos_site_id
 _symmetry_equiv_pos_as_xyz
  1  'x, y, z'
loop_
 _atom_site_type_symbol
 _atom_site_label
 _atom_site_symmetry_multiplicity
 _atom_site_fract_x
 _atom_site_fract_y
 _atom_site_fract_z
 _atom_site_occupancy
  Ni  Ni0  1  -0.16021299  0.72590184  0.84030837  1
  Ni  Ni1  1  0.33725059  0.71546806  -0.66710007  1
  Ni  Ni2  1  0.83176194  0.37868091  0.16684744  1
  Ni  Ni3  1  0.83612232  0.05234732  0.50377259  1
  Ni  Ni4  1  0.33461935  0.38873089  0.67432751  1
  H  H5  1  -0.15082122  0.05263099  0.00430416  1
