# generated using pymatgen
data_NiCl2
_symmetry_space_group_name_H-M   'P 1'
_cell_length_a   7.11648151
_cell_length_b   7.69780748
_cell_length_c   6.22258784
_cell_angle_alpha   32.73110324
_cell_angle_beta   26.86136235
_cell_angle_gamma   32.18811954
_symmetry_Int_Tables_number   1
_chemical_formula_structural   NiCl2
_chemical_formula_sum   'Ni1 Cl2'
_cell_volume   76.60158074
_cell_formula_units_Z   1
loop_
 _symmetry_equiv_pos_site_id
 _symmetry_equiv_pos_as_xyz
  1  'x, y, z'
loop_
 _atom_site_type_symbol
 _atom_site_label
 _atom_site_symmetry_multiplicity
 _atom_site_fract_x
 _atom_site_fract_y
 _atom_site_fract_z
 _atom_site_occupancy
  Ni  Ni0  1  -0.04052697  -0.07273540  -0.01062460  1
  Cl  Cl1  1  0.37772884  0.11932861  0.16193376  1
  Cl  Cl2  1  0.54317813  0.73122679  0.81753084  1
