# generated using pymatgen
data_NiMoP
_symmetry_space_group_name_H-M   'P 1'
_cell_length_a   5.92025038
_cell_length_b   8.64745309
_cell_length_c   3.19629011
_cell_angle_alpha   90.01938241
_cell_angle_beta   90.07712564
_cell_angle_gamma   128.06883735
_symmetry_Int_Tables_number   1
_chemical_formula_structural   NiMoP
_chemical_formula_sum   'Ni3 Mo3 P3'
_cell_volume   128.82424004
_cell_formula_units_Z   3
loop_
 _symmetry_equiv_pos_site_id
 _symmetry_equiv_pos_as_xyz
  1  'x, y, z'
loop_
 _atom_site_type_symbol
 _atom_site_label
 _atom_site_symmetry_multiplicity
 _atom_site_fract_x
 _atom_site_fract_y
 _atom_site_fract_z
 _atom_site_occupancy
  Ni  Ni0  1  0.74676798  0.79452657  -0.02278528  1
  Ni  Ni1  1  0.27665924  -0.02131145  -0.02225700  1
  Ni  Ni2  1  0.02456814  0.40879816  -0.02294856  1
  Mo  Mo3  1  -0.03852968  0.65639830  0.47704702  1
  Mo  Mo4  1  0.65191045  0.01272419  0.47839799  1
  Mo  Mo5  1  0.56911299  0.27772134  0.47735027  1
  P  P6  1  0.04977576  0.00929801  0.47763092  1
  P  P7  1  0.51235126  0.47140813  -0.02317826  1
  P  P8  1  0.33926386  0.74202675  -0.02229709  1
