# generated using pymatgen
data_NiSb2
_symmetry_space_group_name_H-M   'P 1'
_cell_length_a   4.35761147
_cell_length_b   6.69382609
_cell_length_c   4.82472957
_cell_angle_alpha   74.82889381
_cell_angle_beta   89.44884676
_cell_angle_gamma   88.47559249
_symmetry_Int_Tables_number   1
_chemical_formula_structural   NiSb2
_chemical_formula_sum   'Ni2 Sb4'
_cell_volume   135.77965755
_cell_formula_units_Z   2
loop_
 _symmetry_equiv_pos_site_id
 _symmetry_equiv_pos_as_xyz
  1  'x, y, z'
loop_
 _atom_site_type_symbol
 _atom_site_label
 _atom_site_symmetry_multiplicity
 _atom_site_fract_x
 _atom_site_fract_y
 _atom_site_fract_z
 _atom_site_occupancy
  Ni  Ni0  1  -0.11135017  -0.03243143  -0.00875587  1
  Ni  Ni1  1  -0.10742242  0.37733420  0.64923319  1
  Sb  Sb2  1  -0.19544251  0.30062373  0.16960634  1
  Sb  Sb3  1  -0.07709228  0.76619391  0.57577067  1
  Sb  Sb4  1  0.41403581  0.72578998  0.16079859  1
  Sb  Sb5  1  0.38209158  0.16812961  0.71915707  1
