# generated using pymatgen
data_NpAsSe
_symmetry_space_group_name_H-M   'P 1'
_cell_length_a   4.29066037
_cell_length_b   5.74545734
_cell_length_c   9.00325616
_cell_angle_alpha   95.93266861
_cell_angle_beta   104.09214106
_cell_angle_gamma   137.94067882
_symmetry_Int_Tables_number   1
_chemical_formula_structural   NpAsSe
_chemical_formula_sum   'Np2 As2 Se2'
_cell_volume   129.68771766
_cell_formula_units_Z   2
loop_
 _symmetry_equiv_pos_site_id
 _symmetry_equiv_pos_as_xyz
  1  'x, y, z'
loop_
 _atom_site_type_symbol
 _atom_site_label
 _atom_site_symmetry_multiplicity
 _atom_site_fract_x
 _atom_site_fract_y
 _atom_site_fract_z
 _atom_site_occupancy
  Np  Np0  1  -0.38361744  0.55799933  0.59704362  1
  Np  Np1  1  0.77102372  -0.00500629  0.03130221  1
  As  As2  1  -0.30432847  -0.22286198  -0.68492141  1
  As  As3  1  0.66045315  0.42174551  -0.04271964  1
  Se  Se4  1  0.76549336  0.15733895  0.69605810  1
  Se  Se5  1  -0.29961432  0.28078448  0.31776712  1
