# generated using pymatgen
data_P2HRu2
_symmetry_space_group_name_H-M   'P 1'
_cell_length_a   2.94746066
_cell_length_b   4.40081145
_cell_length_c   6.37920986
_cell_angle_alpha   121.81174859
_cell_angle_beta   62.88692845
_cell_angle_gamma   109.61369607
_symmetry_Int_Tables_number   1
_chemical_formula_structural   P2HRu2
_chemical_formula_sum   'P2 H1 Ru2'
_cell_volume   62.08902981
_cell_formula_units_Z   1
loop_
 _symmetry_equiv_pos_site_id
 _symmetry_equiv_pos_as_xyz
  1  'x, y, z'
loop_
 _atom_site_type_symbol
 _atom_site_label
 _atom_site_symmetry_multiplicity
 _atom_site_fract_x
 _atom_site_fract_y
 _atom_site_fract_z
 _atom_site_occupancy
  P  P0  1  0.52489025  0.28010869  0.74506311  1
  P  P1  1  0.63396969  0.67476933  0.33156544  1
  H  H2  1  -0.33036162  -0.02449560  0.03655643  1
  Ru  Ru3  1  0.22284085  0.72446746  0.76964083  1
  Ru  Ru4  1  0.93559083  0.23076012  0.30728420  1
