# generated using pymatgen
data_PbF4
_symmetry_space_group_name_H-M   'P 1'
_cell_length_a   3.55991708
_cell_length_b   4.65576663
_cell_length_c   5.25987532
_cell_angle_alpha   105.21846817
_cell_angle_beta   113.87964521
_cell_angle_gamma   88.58604797
_symmetry_Int_Tables_number   1
_chemical_formula_structural   PbF4
_chemical_formula_sum   'Pb1 F4'
_cell_volume   76.59028215
_cell_formula_units_Z   1
loop_
 _symmetry_equiv_pos_site_id
 _symmetry_equiv_pos_as_xyz
  1  'x, y, z'
loop_
 _atom_site_type_symbol
 _atom_site_label
 _atom_site_symmetry_multiplicity
 _atom_site_fract_x
 _atom_site_fract_y
 _atom_site_fract_z
 _atom_site_occupancy
  Pb  Pb0  1  -0.24850398  0.33366836  0.24575957  1
  F  F1  1  0.87977146  0.75316623  0.50005313  1
  F  F2  1  0.11050175  0.42182791  0.00528049  1
  F  F3  1  0.61575676  -0.08542787  -0.00972259  1
  F  F4  1  0.39233401  0.24647538  0.48659941  1
