# generated using pymatgen
data_PHIr
_symmetry_space_group_name_H-M   'P 1'
_cell_length_a   3.57555567
_cell_length_b   3.41618965
_cell_length_c   6.41584534
_cell_angle_alpha   96.40019574
_cell_angle_beta   106.83525351
_cell_angle_gamma   80.50586768
_symmetry_Int_Tables_number   1
_chemical_formula_structural   PHIr
_chemical_formula_sum   'P2 H2 Ir2'
_cell_volume   73.81331548
_cell_formula_units_Z   2
loop_
 _symmetry_equiv_pos_site_id
 _symmetry_equiv_pos_as_xyz
  1  'x, y, z'
loop_
 _atom_site_type_symbol
 _atom_site_label
 _atom_site_symmetry_multiplicity
 _atom_site_fract_x
 _atom_site_fract_y
 _atom_site_fract_z
 _atom_site_occupancy
  P  P0  1  0.25062240  0.55161998  0.77046408  1
  P  P1  1  0.50307406  0.50707114  0.14481163  1
  H  H2  1  0.70378840  0.02006499  0.62467437  1
  H  H3  1  -0.05813486  -0.01771491  -0.00079956  1
  Ir  Ir4  1  0.64218312  0.48148550  0.54649835  1
  Ir  Ir5  1  -0.04105311  0.92442330  0.24589113  1
