# generated using pymatgen
data_Pm2Cu
_symmetry_space_group_name_H-M   'P 1'
_cell_length_a   3.66208096
_cell_length_b   3.66297873
_cell_length_c   6.25919193
_cell_angle_alpha   73.14501581
_cell_angle_beta   73.88970399
_cell_angle_gamma   88.81629365
_symmetry_Int_Tables_number   1
_chemical_formula_structural   Pm2Cu
_chemical_formula_sum   'Pm2 Cu1'
_cell_volume   77.03570117
_cell_formula_units_Z   1
loop_
 _symmetry_equiv_pos_site_id
 _symmetry_equiv_pos_as_xyz
  1  'x, y, z'
loop_
 _atom_site_type_symbol
 _atom_site_label
 _atom_site_symmetry_multiplicity
 _atom_site_fract_x
 _atom_site_fract_y
 _atom_site_fract_z
 _atom_site_occupancy
  Pm  Pm0  1  0.17322888  0.13214347  0.25107629  1
  Pm  Pm1  1  0.88565984  0.84334676  0.82098070  1
  Cu  Cu2  1  0.52850129  0.48669978  0.53681300  1
