# generated using pymatgen
data_Pm2GaNi
_symmetry_space_group_name_H-M   'P 1'
_cell_length_a   5.14925501
_cell_length_b   5.04327430
_cell_length_c   5.07621309
_cell_angle_alpha   59.09763578
_cell_angle_beta   59.40134138
_cell_angle_gamma   60.35380811
_symmetry_Int_Tables_number   1
_chemical_formula_structural   Pm2GaNi
_chemical_formula_sum   'Pm2 Ga1 Ni1'
_cell_volume   92.37944296
_cell_formula_units_Z   1
loop_
 _symmetry_equiv_pos_site_id
 _symmetry_equiv_pos_as_xyz
  1  'x, y, z'
loop_
 _atom_site_type_symbol
 _atom_site_label
 _atom_site_symmetry_multiplicity
 _atom_site_fract_x
 _atom_site_fract_y
 _atom_site_fract_z
 _atom_site_occupancy
  Pm  Pm0  1  0.20338795  0.21664675  0.27645041  1
  Pm  Pm1  1  0.71337122  0.71018837  0.76815441  1
  Ga  Ga2  1  0.45234126  0.46050916  0.52597458  1
  Ni  Ni3  1  0.02435958  -0.01460428  -0.00849940  1
