# generated using pymatgen
data_Pm3Pb
_symmetry_space_group_name_H-M   'P 1'
_cell_length_a   5.64512884
_cell_length_b   3.59513332
_cell_length_c   6.21715255
_cell_angle_alpha   91.21107074
_cell_angle_beta   90.04207371
_cell_angle_gamma   90.06108983
_symmetry_Int_Tables_number   1
_chemical_formula_structural   Pm3Pb
_chemical_formula_sum   'Pm3 Pb1'
_cell_volume   126.14876037
_cell_formula_units_Z   1
loop_
 _symmetry_equiv_pos_site_id
 _symmetry_equiv_pos_as_xyz
  1  'x, y, z'
loop_
 _atom_site_type_symbol
 _atom_site_label
 _atom_site_symmetry_multiplicity
 _atom_site_fract_x
 _atom_site_fract_y
 _atom_site_fract_z
 _atom_site_occupancy
  Pm  Pm0  1  -0.01241115  0.41804364  0.43415742  1
  Pm  Pm1  1  0.48647747  0.45355639  0.06939181  1
  Pm  Pm2  1  0.48711757  -0.06797981  0.59630854  1
  Pb  Pb3  1  -0.01293389  -0.05338021  -0.07966778  1
