# generated using pymatgen
data_PmAlAg2
_symmetry_space_group_name_H-M   'P 1'
_cell_length_a   3.53902382
_cell_length_b   5.95498096
_cell_length_c   5.41401666
_cell_angle_alpha   89.72359090
_cell_angle_beta   89.62362591
_cell_angle_gamma   53.57896575
_symmetry_Int_Tables_number   1
_chemical_formula_structural   PmAlAg2
_chemical_formula_sum   'Pm1 Al1 Ag2'
_cell_volume   91.81101380
_cell_formula_units_Z   1
loop_
 _symmetry_equiv_pos_site_id
 _symmetry_equiv_pos_as_xyz
  1  'x, y, z'
loop_
 _atom_site_type_symbol
 _atom_site_label
 _atom_site_symmetry_multiplicity
 _atom_site_fract_x
 _atom_site_fract_y
 _atom_site_fract_z
 _atom_site_occupancy
  Pm  Pm0  1  0.47735992  0.82350215  0.71729980  1
  Al  Al1  1  0.47263493  0.32301895  -0.00558962  1
  Ag  Ag2  1  -0.02315341  -0.17718149  0.20735078  1
  Ag  Ag3  1  0.48131856  0.32292040  0.48988904  1
