# generated using pymatgen
data_PmDyRh2
_symmetry_space_group_name_H-M   'P 1'
_cell_length_a   5.71354481
_cell_length_b   3.85338869
_cell_length_c   5.71798580
_cell_angle_alpha   47.67086457
_cell_angle_beta   76.69090584
_cell_angle_gamma   70.22650504
_symmetry_Int_Tables_number   1
_chemical_formula_structural   PmDyRh2
_chemical_formula_sum   'Pm1 Dy1 Rh2'
_cell_volume   87.58100643
_cell_formula_units_Z   1
loop_
 _symmetry_equiv_pos_site_id
 _symmetry_equiv_pos_as_xyz
  1  'x, y, z'
loop_
 _atom_site_type_symbol
 _atom_site_label
 _atom_site_symmetry_multiplicity
 _atom_site_fract_x
 _atom_site_fract_y
 _atom_site_fract_z
 _atom_site_occupancy
  Pm  Pm0  1  0.56625387  0.69551822  0.87900803  1
  Dy  Dy1  1  0.13324324  -0.08764873  0.37927295  1
  Rh  Rh2  1  0.02437953  0.96727491  0.87894969  1
  Rh  Rh3  1  0.68664335  0.63572560  0.37869933  1
