# generated using pymatgen
data_PmNdZn2
_symmetry_space_group_name_H-M   'P 1'
_cell_length_a   5.01338000
_cell_length_b   6.12196304
_cell_length_c   6.21195515
_cell_angle_alpha   59.89364019
_cell_angle_beta   36.08448129
_cell_angle_gamma   65.81303090
_symmetry_Int_Tables_number   1
_chemical_formula_structural   PmNdZn2
_chemical_formula_sum   'Pm1 Nd1 Zn2'
_cell_volume   97.13969611
_cell_formula_units_Z   1
loop_
 _symmetry_equiv_pos_site_id
 _symmetry_equiv_pos_as_xyz
  1  'x, y, z'
loop_
 _atom_site_type_symbol
 _atom_site_label
 _atom_site_symmetry_multiplicity
 _atom_site_fract_x
 _atom_site_fract_y
 _atom_site_fract_z
 _atom_site_occupancy
  Pm  Pm0  1  0.12048294  -0.11769241  -0.02148392  1
  Nd  Nd1  1  0.64132736  0.32541153  0.73731077  1
  Zn  Zn2  1  -0.36438918  0.42674394  0.19265930  1
  Zn  Zn3  1  0.12812888  0.78265694  0.51945384  1
