# generated using pymatgen
data_PmSbAu2
_symmetry_space_group_name_H-M   'P 1'
_cell_length_a   4.76851113
_cell_length_b   4.74966129
_cell_length_c   7.65329412
_cell_angle_alpha   50.20081755
_cell_angle_beta   50.54699188
_cell_angle_gamma   60.37351947
_symmetry_Int_Tables_number   1
_chemical_formula_structural   PmSbAu2
_chemical_formula_sum   'Pm1 Sb1 Au2'
_cell_volume   101.70284893
_cell_formula_units_Z   1
loop_
 _symmetry_equiv_pos_site_id
 _symmetry_equiv_pos_as_xyz
  1  'x, y, z'
loop_
 _atom_site_type_symbol
 _atom_site_label
 _atom_site_symmetry_multiplicity
 _atom_site_fract_x
 _atom_site_fract_y
 _atom_site_fract_z
 _atom_site_occupancy
  Pm  Pm0  1  0.38272016  0.35574875  0.34825075  1
  Sb  Sb1  1  0.78298769  0.74556671  0.74530790  1
  Au  Au2  1  -0.06204278  -0.09558710  0.03045037  1
  Au  Au3  1  0.55343493  0.52163164  0.59103098  1
