# generated using pymatgen
data_PNF2
_symmetry_space_group_name_H-M   'P 1'
_cell_length_a   5.02157702
_cell_length_b   5.67211241
_cell_length_c   5.21753306
_cell_angle_alpha   112.47409081
_cell_angle_beta   79.75871867
_cell_angle_gamma   93.73714841
_symmetry_Int_Tables_number   1
_chemical_formula_structural   PNF2
_chemical_formula_sum   'P2 N2 F4'
_cell_volume   135.13560044
_cell_formula_units_Z   2
loop_
 _symmetry_equiv_pos_site_id
 _symmetry_equiv_pos_as_xyz
  1  'x, y, z'
loop_
 _atom_site_type_symbol
 _atom_site_label
 _atom_site_symmetry_multiplicity
 _atom_site_fract_x
 _atom_site_fract_y
 _atom_site_fract_z
 _atom_site_occupancy
  P  P0  1  0.46794616  0.85627852  0.83683015  1
  P  P1  1  -0.05791508  0.17770797  0.05540264  1
  N  N2  1  0.12808021  0.86922580  0.92779222  1
  N  N3  1  0.63616496  0.06886912  0.02055960  1
  F  F4  1  0.07465744  0.79816871  0.17321299  1
  F  F5  1  0.53720070  0.58158108  0.80503918  1
  F  F6  1  0.05774686  0.20841304  0.75720717  1
  F  F7  1  0.49677875  0.82849577  0.52440604  1
