# generated using pymatgen
data_Pr2CBr
_symmetry_space_group_name_H-M   'P 1'
_cell_length_a   3.85150732
_cell_length_b   3.85649738
_cell_length_c   18.51489450
_cell_angle_alpha   76.65708441
_cell_angle_beta   87.26277538
_cell_angle_gamma   120.01837877
_symmetry_Int_Tables_number   1
_chemical_formula_structural   Pr2CBr
_chemical_formula_sum   'Pr4 C2 Br2'
_cell_volume   227.30284793
_cell_formula_units_Z   2
loop_
 _symmetry_equiv_pos_site_id
 _symmetry_equiv_pos_as_xyz
  1  'x, y, z'
loop_
 _atom_site_type_symbol
 _atom_site_label
 _atom_site_symmetry_multiplicity
 _atom_site_fract_x
 _atom_site_fract_y
 _atom_site_fract_z
 _atom_site_occupancy
  Pr  Pr0  1  0.17568984  0.42509097  0.10149122  1
  Pr  Pr1  1  0.45931937  0.19947416  0.71654655  1
  Pr  Pr2  1  0.67547427  0.35541254  0.94072687  1
  Pr  Pr3  1  0.29806649  0.79610370  0.55559031  1
  C  C4  1  -0.06955536  -0.09923644  0.01307175  1
  C  C5  1  -0.13013252  -0.01532760  0.64274562  1
  Br  Br6  1  0.72586533  0.57220581  0.21792107  1
  Br  Br7  1  0.74897258  0.64795686  0.44071662  1
