# generated using pymatgen
data_PrCdHg2
_symmetry_space_group_name_H-M   'P 1'
_cell_length_a   5.17678473
_cell_length_b   7.22912971
_cell_length_c   5.19013835
_cell_angle_alpha   46.01080260
_cell_angle_beta   61.04900515
_cell_angle_gamma   46.05721154
_symmetry_Int_Tables_number   1
_chemical_formula_structural   PrCdHg2
_chemical_formula_sum   'Pr1 Cd1 Hg2'
_cell_volume   100.62063900
_cell_formula_units_Z   1
loop_
 _symmetry_equiv_pos_site_id
 _symmetry_equiv_pos_as_xyz
  1  'x, y, z'
loop_
 _atom_site_type_symbol
 _atom_site_label
 _atom_site_symmetry_multiplicity
 _atom_site_fract_x
 _atom_site_fract_y
 _atom_site_fract_z
 _atom_site_occupancy
  Pr  Pr0  1  0.85856571  0.48210520  -0.12203633  1
  Cd  Cd1  1  0.35971164  0.23007200  0.37927965  1
  Hg  Hg2  1  -0.14134563  -0.01745763  -0.12311801  1
  Hg  Hg3  1  0.35888829  -0.26710956  0.37617469  1
