# generated using pymatgen
data_PrErS2
_symmetry_space_group_name_H-M   'P 1'
_cell_length_a   7.06818464
_cell_length_b   7.06773198
_cell_length_c   7.07045349
_cell_angle_alpha   32.24049584
_cell_angle_beta   32.24982188
_cell_angle_gamma   32.28816361
_symmetry_Int_Tables_number   1
_chemical_formula_structural   PrErS2
_chemical_formula_sum   'Pr1 Er1 S2'
_cell_volume   89.44385443
_cell_formula_units_Z   1
loop_
 _symmetry_equiv_pos_site_id
 _symmetry_equiv_pos_as_xyz
  1  'x, y, z'
loop_
 _atom_site_type_symbol
 _atom_site_label
 _atom_site_symmetry_multiplicity
 _atom_site_fract_x
 _atom_site_fract_y
 _atom_site_fract_z
 _atom_site_occupancy
  Pr  Pr0  1  0.49352232  0.52599753  0.51374949  1
  Er  Er1  1  -0.00542778  0.02539178  0.01464489  1
  S  S2  1  0.73625287  0.76812612  0.75572109  1
  S  S3  1  0.25204259  0.28378457  0.27154452  1
