# generated using pymatgen
data_PrSnRh2
_symmetry_space_group_name_H-M   'P 1'
_cell_length_a   4.55762034
_cell_length_b   4.55992584
_cell_length_c   5.39661348
_cell_angle_alpha   64.89924231
_cell_angle_beta   64.91671362
_cell_angle_gamma   60.04378174
_symmetry_Int_Tables_number   1
_chemical_formula_structural   PrSnRh2
_chemical_formula_sum   'Pr1 Sn1 Rh2'
_cell_volume   84.71834707
_cell_formula_units_Z   1
loop_
 _symmetry_equiv_pos_site_id
 _symmetry_equiv_pos_as_xyz
  1  'x, y, z'
loop_
 _atom_site_type_symbol
 _atom_site_label
 _atom_site_symmetry_multiplicity
 _atom_site_fract_x
 _atom_site_fract_y
 _atom_site_fract_z
 _atom_site_occupancy
  Pr  Pr0  1  0.23597037  0.28171882  0.27141892  1
  Sn  Sn1  1  0.73706900  0.78149894  0.77059426  1
  Rh  Rh2  1  0.02402343  0.06866490  -0.09103620  1
  Rh  Rh3  1  0.44935720  0.49366734  0.63392303  1
