# generated using pymatgen
data_PrTeAs
_symmetry_space_group_name_H-M   'P 1'
_cell_length_a   4.00558790
_cell_length_b   7.78828696
_cell_length_c   13.72081306
_cell_angle_alpha   102.63449079
_cell_angle_beta   106.98774217
_cell_angle_gamma   75.27968534
_symmetry_Int_Tables_number   1
_chemical_formula_structural   PrTeAs
_chemical_formula_sum   'Pr4 Te4 As4'
_cell_volume   391.07008380
_cell_formula_units_Z   4
loop_
 _symmetry_equiv_pos_site_id
 _symmetry_equiv_pos_as_xyz
  1  'x, y, z'
loop_
 _atom_site_type_symbol
 _atom_site_label
 _atom_site_symmetry_multiplicity
 _atom_site_fract_x
 _atom_site_fract_y
 _atom_site_fract_z
 _atom_site_occupancy
  Pr  Pr0  1  0.42705598  0.54990320  0.95238191  1
  Pr  Pr1  1  0.74832996  0.55396843  0.27858625  1
  Pr  Pr2  1  0.89534502  0.76930043  0.52801650  1
  Pr  Pr3  1  0.16587641  0.25999330  0.54845411  1
  Te  Te4  1  0.16054414  0.38385470  0.10581720  1
  Te  Te5  1  0.81687259  0.37419999  0.75606977  1
  Te  Te6  1  0.48829400  0.94122803  0.70527940  1
  Te  Te7  1  0.15758832  -0.08993713  0.36055429  1
  As  As8  1  0.16109356  0.64259863  0.73248644  1
  As  As9  1  0.46481644  0.45341375  0.44322760  1
  As  As10  1  0.85209012  0.86243899  0.02795494  1
  As  As11  1  0.21242346  -0.04750232  0.93145157  1
