# generated using pymatgen
data_PrYMg2
_symmetry_space_group_name_H-M   'P 1'
_cell_length_a   5.49568229
_cell_length_b   6.67302668
_cell_length_c   6.45310138
_cell_angle_alpha   58.62480470
_cell_angle_beta   64.43954930
_cell_angle_gamma   34.43093610
_symmetry_Int_Tables_number   1
_chemical_formula_structural   PrYMg2
_chemical_formula_sum   'Pr1 Y1 Mg2'
_cell_volume   114.24009138
_cell_formula_units_Z   1
loop_
 _symmetry_equiv_pos_site_id
 _symmetry_equiv_pos_as_xyz
  1  'x, y, z'
loop_
 _atom_site_type_symbol
 _atom_site_label
 _atom_site_symmetry_multiplicity
 _atom_site_fract_x
 _atom_site_fract_y
 _atom_site_fract_z
 _atom_site_occupancy
  Pr  Pr0  1  0.41839462  0.31393493  0.39172193  1
  Y  Y1  1  0.92833325  0.54188268  0.93172802  1
  Mg  Mg2  1  0.41727133  0.78692934  0.44466235  1
  Mg  Mg3  1  -0.07186920  0.07651305  -0.13468231  1
