# generated using pymatgen
data_PuIn
_symmetry_space_group_name_H-M   'P 1'
_cell_length_a   2.87270681
_cell_length_b   2.87475000
_cell_length_c   5.69720051
_cell_angle_alpha   90.01201729
_cell_angle_beta   89.93989388
_cell_angle_gamma   59.90755438
_symmetry_Int_Tables_number   1
_chemical_formula_structural   PuIn
_chemical_formula_sum   'Pu1 In1'
_cell_volume   40.70781646
_cell_formula_units_Z   1
loop_
 _symmetry_equiv_pos_site_id
 _symmetry_equiv_pos_as_xyz
  1  'x, y, z'
loop_
 _atom_site_type_symbol
 _atom_site_label
 _atom_site_symmetry_multiplicity
 _atom_site_fract_x
 _atom_site_fract_y
 _atom_site_fract_z
 _atom_site_occupancy
  Pu  Pu0  1  0.35985339  0.31825707  0.46783193  1
  In  In1  1  0.02745661  -0.02226707  -0.03196193  1
