# generated using pymatgen
data_PuS2
_symmetry_space_group_name_H-M   'P 1'
_cell_length_a   6.32331924
_cell_length_b   4.00282995
_cell_length_c   7.42454924
_cell_angle_alpha   67.81156235
_cell_angle_beta   42.51407145
_cell_angle_gamma   74.20066216
_symmetry_Int_Tables_number   1
_chemical_formula_structural   PuS2
_chemical_formula_sum   'Pu2 S4'
_cell_volume   117.58378448
_cell_formula_units_Z   2
loop_
 _symmetry_equiv_pos_site_id
 _symmetry_equiv_pos_as_xyz
  1  'x, y, z'
loop_
 _atom_site_type_symbol
 _atom_site_label
 _atom_site_symmetry_multiplicity
 _atom_site_fract_x
 _atom_site_fract_y
 _atom_site_fract_z
 _atom_site_occupancy
  Pu  Pu0  1  -0.07243096  -0.36814817  0.13054385  1
  Pu  Pu1  1  0.42150639  0.48968298  0.39219251  1
  S  S2  1  0.49287797  0.81046873  -0.39252683  1
  S  S3  1  -0.14310128  0.31118191  0.91522255  1
  S  S4  1  0.29728539  0.00524057  0.07618769  1
  S  S5  1  0.05142249  0.11682398  0.44667024  1
