# generated using pymatgen
data_Rb2PtS2
_symmetry_space_group_name_H-M   'P 1'
_cell_length_a   4.36598351
_cell_length_b   6.76506189
_cell_length_c   7.78133415
_cell_angle_alpha   94.52748326
_cell_angle_beta   72.87565359
_cell_angle_gamma   50.93429650
_symmetry_Int_Tables_number   1
_chemical_formula_structural   Rb2PtS2
_chemical_formula_sum   'Rb2 Pt1 S2'
_cell_volume   159.33221128
_cell_formula_units_Z   1
loop_
 _symmetry_equiv_pos_site_id
 _symmetry_equiv_pos_as_xyz
  1  'x, y, z'
loop_
 _atom_site_type_symbol
 _atom_site_label
 _atom_site_symmetry_multiplicity
 _atom_site_fract_x
 _atom_site_fract_y
 _atom_site_fract_z
 _atom_site_occupancy
  Rb  Rb0  1  0.62076204  0.79364355  0.56276954  1
  Rb  Rb1  1  0.60698742  0.02686545  0.11865973  1
  Pt  Pt2  1  -0.20383557  0.45844909  -0.12503016  1
  S  S3  1  0.67035827  0.27331806  0.50247815  1
  S  S4  1  0.43808784  0.34872385  0.80891275  1
