# generated using pymatgen
data_Rb2ThF6
_symmetry_space_group_name_H-M   'P 1'
_cell_length_a   7.02756615
_cell_length_b   6.72931863
_cell_length_c   4.41754968
_cell_angle_alpha   90.27590108
_cell_angle_beta   88.31361970
_cell_angle_gamma   117.80527696
_symmetry_Int_Tables_number   1
_chemical_formula_structural   Rb2ThF6
_chemical_formula_sum   'Rb2 Th1 F6'
_cell_volume   184.69867301
_cell_formula_units_Z   1
loop_
 _symmetry_equiv_pos_site_id
 _symmetry_equiv_pos_as_xyz
  1  'x, y, z'
loop_
 _atom_site_type_symbol
 _atom_site_label
 _atom_site_symmetry_multiplicity
 _atom_site_fract_x
 _atom_site_fract_y
 _atom_site_fract_z
 _atom_site_occupancy
  Rb  Rb0  1  0.31256037  0.57365150  0.56010930  1
  Rb  Rb1  1  0.63563238  0.25251341  0.33518222  1
  Th  Th2  1  -0.06758405  -0.10456980  -0.03524737  1
  F  F3  1  0.01164089  0.18822091  0.27616322  1
  F  F4  1  0.87102958  0.74720216  0.47708810  1
  F  F5  1  0.26040500  0.12210400  0.75695082  1
  F  F6  1  0.69489482  0.01787242  -0.17986459  1
  F  F7  1  0.60014044  0.58806973  0.01670909  1
  F  F8  1  0.08907057  0.67048567  0.01225920  1
