# generated using pymatgen
data_Rb3Sb2Au3
_symmetry_space_group_name_H-M   'P 1'
_cell_length_a   7.18103851
_cell_length_b   12.25522601
_cell_length_c   10.41758200
_cell_angle_alpha   44.25614617
_cell_angle_beta   29.86487151
_cell_angle_gamma   47.60164260
_symmetry_Int_Tables_number   1
_chemical_formula_structural   Rb3Sb2Au3
_chemical_formula_sum   'Rb3 Sb2 Au3'
_cell_volume   314.84443902
_cell_formula_units_Z   1
loop_
 _symmetry_equiv_pos_site_id
 _symmetry_equiv_pos_as_xyz
  1  'x, y, z'
loop_
 _atom_site_type_symbol
 _atom_site_label
 _atom_site_symmetry_multiplicity
 _atom_site_fract_x
 _atom_site_fract_y
 _atom_site_fract_z
 _atom_site_occupancy
  Rb  Rb0  1  0.83475721  0.47217071  0.46556030  1
  Rb  Rb1  1  -0.03618183  0.88794546  0.86454427  1
  Rb  Rb2  1  0.12270551  0.19413664  -0.10409091  1
  Sb  Sb3  1  0.25856539  0.19448364  0.19023641  1
  Sb  Sb4  1  0.62713196  0.69047514  0.87856973  1
  Au  Au5  1  -0.04027567  -0.05431099  0.50116875  1
  Au  Au6  1  0.21716795  0.63874140  0.40899614  1
  Au  Au7  1  -0.12598053  0.44837800  0.09960530  1
