# generated using pymatgen
data_RbAcTe2
_symmetry_space_group_name_H-M   'P 1'
_cell_length_a   6.41251791
_cell_length_b   6.41476471
_cell_length_c   8.06195362
_cell_angle_alpha   51.00452522
_cell_angle_beta   51.02437885
_cell_angle_gamma   43.52415580
_symmetry_Int_Tables_number   1
_chemical_formula_structural   RbAcTe2
_chemical_formula_sum   'Rb1 Ac1 Te2'
_cell_volume   167.99801561
_cell_formula_units_Z   1
loop_
 _symmetry_equiv_pos_site_id
 _symmetry_equiv_pos_as_xyz
  1  'x, y, z'
loop_
 _atom_site_type_symbol
 _atom_site_label
 _atom_site_symmetry_multiplicity
 _atom_site_fract_x
 _atom_site_fract_y
 _atom_site_fract_z
 _atom_site_occupancy
  Rb  Rb0  1  0.75636293  0.81661045  0.85202415  1
  Ac  Ac1  1  0.25669718  0.31735439  0.36164129  1
  Te  Te2  1  -0.00990298  0.05210520  -0.03184398  1
  Te  Te3  1  0.52348287  0.58314996  0.43656853  1
