# generated using pymatgen
data_RbAgBr3
_symmetry_space_group_name_H-M   'P 1'
_cell_length_a   4.63889667
_cell_length_b   5.28977377
_cell_length_c   7.25484009
_cell_angle_alpha   90.14273437
_cell_angle_beta   91.98948528
_cell_angle_gamma   88.88308041
_symmetry_Int_Tables_number   1
_chemical_formula_structural   RbAgBr3
_chemical_formula_sum   'Rb1 Ag1 Br3'
_cell_volume   177.88303722
_cell_formula_units_Z   1
loop_
 _symmetry_equiv_pos_site_id
 _symmetry_equiv_pos_as_xyz
  1  'x, y, z'
loop_
 _atom_site_type_symbol
 _atom_site_label
 _atom_site_symmetry_multiplicity
 _atom_site_fract_x
 _atom_site_fract_y
 _atom_site_fract_z
 _atom_site_occupancy
  Rb  Rb0  1  0.82419626  -0.03981914  0.85274212  1
  Ag  Ag1  1  0.62348674  0.46024945  0.31152317  1
  Br  Br2  1  0.01108024  0.45586822  0.56688532  1
  Br  Br3  1  0.33815372  0.46007627  0.00404207  1
  Br  Br4  1  0.63508304  -0.03985480  0.32040732  1
