# generated using pymatgen
data_RbCl2
_symmetry_space_group_name_H-M   'P 1'
_cell_length_a   3.06578844
_cell_length_b   5.52688513
_cell_length_c   7.68379103
_cell_angle_alpha   87.18791430
_cell_angle_beta   98.87683490
_cell_angle_gamma   124.23961819
_symmetry_Int_Tables_number   1
_chemical_formula_structural   RbCl2
_chemical_formula_sum   'Rb1 Cl2'
_cell_volume   106.22918466
_cell_formula_units_Z   1
loop_
 _symmetry_equiv_pos_site_id
 _symmetry_equiv_pos_as_xyz
  1  'x, y, z'
loop_
 _atom_site_type_symbol
 _atom_site_label
 _atom_site_symmetry_multiplicity
 _atom_site_fract_x
 _atom_site_fract_y
 _atom_site_fract_z
 _atom_site_occupancy
  Rb  Rb0  1  -0.07067111  -0.04885993  -0.00967429  1
  Cl  Cl1  1  0.80166546  0.42846280  0.74045317  1
  Cl  Cl2  1  0.05716565  0.47115712  0.24028112  1
