# generated using pymatgen
data_RbI
_symmetry_space_group_name_H-M   'P 1'
_cell_length_a   6.88745578
_cell_length_b   5.06712789
_cell_length_c   5.08569561
_cell_angle_alpha   59.88938596
_cell_angle_beta   68.04980993
_cell_angle_gamma   42.70254678
_symmetry_Int_Tables_number   1
_chemical_formula_structural   RbI
_chemical_formula_sum   'Rb1 I1'
_cell_volume   104.12446974
_cell_formula_units_Z   1
loop_
 _symmetry_equiv_pos_site_id
 _symmetry_equiv_pos_as_xyz
  1  'x, y, z'
loop_
 _atom_site_type_symbol
 _atom_site_label
 _atom_site_symmetry_multiplicity
 _atom_site_fract_x
 _atom_site_fract_y
 _atom_site_fract_z
 _atom_site_occupancy
  Rb  Rb0  1  0.06464235  -0.13670455  0.05521061  1
  I  I1  1  0.56628765  0.69884455  0.38950939  1
