# generated using pymatgen
data_Rh2S3
_symmetry_space_group_name_H-M   'P 1'
_cell_length_a   6.17644876
_cell_length_b   6.81341175
_cell_length_c   6.74269678
_cell_angle_alpha   122.19965666
_cell_angle_beta   56.87646784
_cell_angle_gamma   127.80593686
_symmetry_Int_Tables_number   1
_chemical_formula_structural   Rh2S3
_chemical_formula_sum   'Rh4 S6'
_cell_volume   179.16260883
_cell_formula_units_Z   2
loop_
 _symmetry_equiv_pos_site_id
 _symmetry_equiv_pos_as_xyz
  1  'x, y, z'
loop_
 _atom_site_type_symbol
 _atom_site_label
 _atom_site_symmetry_multiplicity
 _atom_site_fract_x
 _atom_site_fract_y
 _atom_site_fract_z
 _atom_site_occupancy
  Rh  Rh0  1  -0.01527059  0.19572487  0.05508291  1
  Rh  Rh1  1  0.62550678  0.21320252  0.74792266  1
  Rh  Rh2  1  0.10807085  0.83174461  0.28924084  1
  Rh  Rh3  1  0.46578897  0.51709144  0.70142276  1
  S  S4  1  0.90043021  0.46594524  0.46698663  1
  S  S5  1  0.56917960  0.81981752  0.06349433  1
  S  S6  1  0.26900100  0.13732914  0.12523843  1
  S  S7  1  0.64472659  0.82073058  0.52888946  1
  S  S8  1  0.24515943  0.07544640  0.63803895  1
  S  S9  1  -0.02309284  0.45749767  0.93820302  1
