# generated using pymatgen
data_Ru3Rh
_symmetry_space_group_name_H-M   'P 1'
_cell_length_a   5.44166307
_cell_length_b   5.44418591
_cell_length_c   5.08753882
_cell_angle_alpha   74.49420479
_cell_angle_beta   74.54048862
_cell_angle_gamma   119.95234899
_symmetry_Int_Tables_number   1
_chemical_formula_structural   Ru3Rh
_chemical_formula_sum   'Ru6 Rh2'
_cell_volume   110.45262446
_cell_formula_units_Z   2
loop_
 _symmetry_equiv_pos_site_id
 _symmetry_equiv_pos_as_xyz
  1  'x, y, z'
loop_
 _atom_site_type_symbol
 _atom_site_label
 _atom_site_symmetry_multiplicity
 _atom_site_fract_x
 _atom_site_fract_y
 _atom_site_fract_z
 _atom_site_occupancy
  Ru  Ru0  1  0.13510715  0.29370814  0.17947412  1
  Ru  Ru1  1  0.63664332  0.79511257  0.17148738  1
  Ru  Ru2  1  0.13597368  0.79356667  0.17586202  1
  Ru  Ru3  1  0.71931342  0.71021664  0.67202794  1
  Ru  Ru4  1  0.21802371  0.20880002  0.68010004  1
  Ru  Ru5  1  0.71791329  0.20994309  0.67593438  1
  Rh  Rh6  1  0.21945172  0.70933704  0.67564124  1
  Rh  Rh7  1  0.63498372  0.29466583  0.17559288  1
