# generated using pymatgen
data_Sb2Pt
_symmetry_space_group_name_H-M   'P 1'
_cell_length_a   6.69715826
_cell_length_b   6.82969837
_cell_length_c   6.74121620
_cell_angle_alpha   99.43861246
_cell_angle_beta   101.38527651
_cell_angle_gamma   78.79688858
_symmetry_Int_Tables_number   1
_chemical_formula_structural   Sb2Pt
_chemical_formula_sum   'Sb8 Pt4'
_cell_volume   293.97136854
_cell_formula_units_Z   4
loop_
 _symmetry_equiv_pos_site_id
 _symmetry_equiv_pos_as_xyz
  1  'x, y, z'
loop_
 _atom_site_type_symbol
 _atom_site_label
 _atom_site_symmetry_multiplicity
 _atom_site_fract_x
 _atom_site_fract_y
 _atom_site_fract_z
 _atom_site_occupancy
  Sb  Sb0  1  0.38741452  0.11005893  0.89329358  1
  Sb  Sb1  1  0.14211487  0.78247611  0.27422370  1
  Sb  Sb2  1  0.82880627  0.30097804  0.06018641  1
  Sb  Sb3  1  0.68044451  0.62390007  0.67146845  1
  Sb  Sb4  1  0.38991499  0.32309953  0.40458953  1
  Sb  Sb5  1  0.17811273  0.69728196  0.79646156  1
  Sb  Sb6  1  0.96113607  0.17654413  0.62135439  1
  Sb  Sb7  1  0.66677637  0.77858807  0.24274371  1
  Pt  Pt8  1  -0.00342148  0.49000619  0.43203437  1
  Pt  Pt9  1  0.42930661  0.48839505  0.08036225  1
  Pt  Pt10  1  0.60779649  0.02118849  0.58555315  1
  Pt  Pt11  1  -0.16045195  -0.09788657  -0.03619110  1
