# generated using pymatgen
data_Sb2Ru
_symmetry_space_group_name_H-M   'P 1'
_cell_length_a   3.22889666
_cell_length_b   6.90896583
_cell_length_c   6.85955814
_cell_angle_alpha   105.71302736
_cell_angle_beta   76.47582743
_cell_angle_gamma   103.32706549
_symmetry_Int_Tables_number   1
_chemical_formula_structural   Sb2Ru
_chemical_formula_sum   'Sb4 Ru2'
_cell_volume   140.91891722
_cell_formula_units_Z   2
loop_
 _symmetry_equiv_pos_site_id
 _symmetry_equiv_pos_as_xyz
  1  'x, y, z'
loop_
 _atom_site_type_symbol
 _atom_site_label
 _atom_site_symmetry_multiplicity
 _atom_site_fract_x
 _atom_site_fract_y
 _atom_site_fract_z
 _atom_site_occupancy
  Sb  Sb0  1  0.09545860  0.14260215  0.32418552  1
  Sb  Sb1  1  -0.27058223  0.56547736  0.48257935  1
  Sb  Sb2  1  0.47437799  0.61401400  0.03042414  1
  Sb  Sb3  1  0.32025064  0.06109494  0.80006975  1
  Ru  Ru4  1  -0.19942437  0.29126632  0.06518991  1
  Ru  Ru5  1  0.40873937  0.86348522  0.41885133  1
