# generated using pymatgen
data_SbH
_symmetry_space_group_name_H-M   'P 1'
_cell_length_a   3.13450881
_cell_length_b   4.88570878
_cell_length_c   4.44140712
_cell_angle_alpha   61.30676415
_cell_angle_beta   45.09007727
_cell_angle_gamma   69.20344833
_symmetry_Int_Tables_number   1
_chemical_formula_structural   SbH
_chemical_formula_sum   'Sb1 H1'
_cell_volume   42.24143948
_cell_formula_units_Z   1
loop_
 _symmetry_equiv_pos_site_id
 _symmetry_equiv_pos_as_xyz
  1  'x, y, z'
loop_
 _atom_site_type_symbol
 _atom_site_label
 _atom_site_symmetry_multiplicity
 _atom_site_fract_x
 _atom_site_fract_y
 _atom_site_fract_z
 _atom_site_occupancy
  Sb  Sb0  1  0.19169759  0.44715820  0.66082483  1
  H  H1  1  0.21473241  0.03989180  -0.13578483  1
