# generated using pymatgen
data_Sc2NiRu
_symmetry_space_group_name_H-M   'P 1'
_cell_length_a   4.16102135
_cell_length_b   4.15852972
_cell_length_c   6.46975851
_cell_angle_alpha   50.11036439
_cell_angle_beta   71.26213707
_cell_angle_gamma   60.08176705
_symmetry_Int_Tables_number   1
_chemical_formula_structural   Sc2NiRu
_chemical_formula_sum   'Sc2 Ni1 Ru1'
_cell_volume   74.45078985
_cell_formula_units_Z   1
loop_
 _symmetry_equiv_pos_site_id
 _symmetry_equiv_pos_as_xyz
  1  'x, y, z'
loop_
 _atom_site_type_symbol
 _atom_site_label
 _atom_site_symmetry_multiplicity
 _atom_site_fract_x
 _atom_site_fract_y
 _atom_site_fract_z
 _atom_site_occupancy
  Sc  Sc0  1  0.95572384  -0.11201179  0.91540768  1
  Sc  Sc1  1  0.28941899  0.70455443  0.43031583  1
  Ni  Ni2  1  0.62427931  0.29858243  0.17219519  1
  Ru  Ru3  1  0.62163786  0.79578493  0.67229130  1
