# generated using pymatgen
data_Sc3FeC4
_symmetry_space_group_name_H-M   'P 1'
_cell_length_a   3.34602549
_cell_length_b   5.41274448
_cell_length_c   6.47621333
_cell_angle_alpha   127.11585816
_cell_angle_beta   90.69170723
_cell_angle_gamma   89.70454154
_symmetry_Int_Tables_number   1
_chemical_formula_structural   Sc3FeC4
_chemical_formula_sum   'Sc3 Fe1 C4'
_cell_volume   93.52337711
_cell_formula_units_Z   1
loop_
 _symmetry_equiv_pos_site_id
 _symmetry_equiv_pos_as_xyz
  1  'x, y, z'
loop_
 _atom_site_type_symbol
 _atom_site_label
 _atom_site_symmetry_multiplicity
 _atom_site_fract_x
 _atom_site_fract_y
 _atom_site_fract_z
 _atom_site_occupancy
  Sc  Sc0  1  -0.22423221  0.42765983  0.00088746  1
  Sc  Sc1  1  0.27301680  0.28983147  0.53037215  1
  Sc  Sc2  1  0.76864609  0.78723262  0.55596821  1
  Fe  Fe3  1  0.27164014  -0.03516799  -0.02993424  1
  C  C4  1  0.27103777  0.11621984  0.75643973  1
  C  C5  1  0.77393963  0.93965883  0.16251221  1
  C  C6  1  0.77198363  0.25773273  0.24863254  1
  C  C7  1  0.77068815  0.71222267  0.85830194  1
