# generated using pymatgen
data_Sc3PbC
_symmetry_space_group_name_H-M   'P 1'
_cell_length_a   3.41522684
_cell_length_b   6.78031565
_cell_length_c   4.56865012
_cell_angle_alpha   90.73349695
_cell_angle_beta   89.99205961
_cell_angle_gamma   111.56706102
_symmetry_Int_Tables_number   1
_chemical_formula_structural   Sc3PbC
_chemical_formula_sum   'Sc3 Pb1 C1'
_cell_volume   98.37706645
_cell_formula_units_Z   1
loop_
 _symmetry_equiv_pos_site_id
 _symmetry_equiv_pos_as_xyz
  1  'x, y, z'
loop_
 _atom_site_type_symbol
 _atom_site_label
 _atom_site_symmetry_multiplicity
 _atom_site_fract_x
 _atom_site_fract_y
 _atom_site_fract_z
 _atom_site_occupancy
  Sc  Sc0  1  0.07313057  0.58330913  0.48118116  1
  Sc  Sc1  1  0.39636129  0.34515833  -0.01861780  1
  Sc  Sc2  1  0.72136296  0.10863657  0.48015907  1
  Pb  Pb3  1  -0.10771376  -0.15506166  -0.01933080  1
  C  C4  1  0.39744894  0.34577764  0.48169837  1
