# generated using pymatgen
data_Sc4C
_symmetry_space_group_name_H-M   'P 1'
_cell_length_a   5.81913343
_cell_length_b   3.34797926
_cell_length_c   5.66327588
_cell_angle_alpha   90.06273913
_cell_angle_beta   78.87217259
_cell_angle_gamma   73.44885756
_symmetry_Int_Tables_number   1
_chemical_formula_structural   Sc4C
_chemical_formula_sum   'Sc4 C1'
_cell_volume   103.58923758
_cell_formula_units_Z   1
loop_
 _symmetry_equiv_pos_site_id
 _symmetry_equiv_pos_as_xyz
  1  'x, y, z'
loop_
 _atom_site_type_symbol
 _atom_site_label
 _atom_site_symmetry_multiplicity
 _atom_site_fract_x
 _atom_site_fract_y
 _atom_site_fract_z
 _atom_site_occupancy
  Sc  Sc0  1  0.02976797  0.27275204  0.43392853  1
  Sc  Sc1  1  0.50810246  0.53523036  0.19387296  1
  Sc  Sc2  1  0.48106415  0.04991589  0.67931808  1
  Sc  Sc3  1  0.00272867  -0.21402984  -0.07912859  1
  C  C4  1  0.25506675  0.66099155  0.55751901  1
