# generated using pymatgen
data_ScBr3
_symmetry_space_group_name_H-M   'P 1'
_cell_length_a   10.79386535
_cell_length_b   9.81453819
_cell_length_c   3.90585272
_cell_angle_alpha   88.42625175
_cell_angle_beta   81.94546524
_cell_angle_gamma   131.48755237
_symmetry_Int_Tables_number   1
_chemical_formula_structural   ScBr3
_chemical_formula_sum   'Sc2 Br6'
_cell_volume   302.83738049
_cell_formula_units_Z   2
loop_
 _symmetry_equiv_pos_site_id
 _symmetry_equiv_pos_as_xyz
  1  'x, y, z'
loop_
 _atom_site_type_symbol
 _atom_site_label
 _atom_site_symmetry_multiplicity
 _atom_site_fract_x
 _atom_site_fract_y
 _atom_site_fract_z
 _atom_site_occupancy
  Sc  Sc0  1  0.43737030  0.48616687  0.91147556  1
  Sc  Sc1  1  0.82011631  0.51580750  0.26391934  1
  Br  Br2  1  0.13036848  0.26906895  0.04922754  1
  Br  Br3  1  0.50408050  0.71131448  0.37134129  1
  Br  Br4  1  0.12704248  0.73282722  0.12956419  1
  Br  Br5  1  0.80353766  0.70316098  0.75804067  1
  Br  Br6  1  0.45455129  0.29918558  0.41872967  1
  Br  Br7  1  0.75464297  0.29095842  0.80459175  1
