# generated using pymatgen
data_ScNbTc2
_symmetry_space_group_name_H-M   'P 1'
_cell_length_a   4.52314357
_cell_length_b   6.38932630
_cell_length_c   4.50539221
_cell_angle_alpha   45.19531034
_cell_angle_beta   60.00223634
_cell_angle_gamma   45.06023564
_symmetry_Int_Tables_number   1
_chemical_formula_structural   ScNbTc2
_chemical_formula_sum   'Sc1 Nb1 Tc2'
_cell_volume   65.39211450
_cell_formula_units_Z   1
loop_
 _symmetry_equiv_pos_site_id
 _symmetry_equiv_pos_as_xyz
  1  'x, y, z'
loop_
 _atom_site_type_symbol
 _atom_site_label
 _atom_site_symmetry_multiplicity
 _atom_site_fract_x
 _atom_site_fract_y
 _atom_site_fract_z
 _atom_site_occupancy
  Sc  Sc0  1  0.63716755  -0.01336696  0.60008834  1
  Nb  Nb1  1  0.13648775  0.23721864  0.10067399  1
  Tc  Tc2  1  0.13738910  0.73673202  0.09976618  1
  Tc  Tc3  1  0.63719561  0.48725629  0.60020148  1
