# generated using pymatgen
data_ScSbRu2
_symmetry_space_group_name_H-M   'P 1'
_cell_length_a   4.45435912
_cell_length_b   6.27168185
_cell_length_c   5.55406990
_cell_angle_alpha   55.25255867
_cell_angle_beta   36.50679109
_cell_angle_gamma   45.17435519
_symmetry_Int_Tables_number   1
_chemical_formula_structural   ScSbRu2
_chemical_formula_sum   'Sc1 Sb1 Ru2'
_cell_volume   65.46765721
_cell_formula_units_Z   1
loop_
 _symmetry_equiv_pos_site_id
 _symmetry_equiv_pos_as_xyz
  1  'x, y, z'
loop_
 _atom_site_type_symbol
 _atom_site_label
 _atom_site_symmetry_multiplicity
 _atom_site_fract_x
 _atom_site_fract_y
 _atom_site_fract_z
 _atom_site_occupancy
  Sc  Sc0  1  0.62334830  0.86387223  0.93217350  1
  Sb  Sb1  1  0.62544907  0.36386653  -0.07031308  1
  Ru  Ru2  1  -0.37437196  0.86350037  0.43070871  1
  Ru  Ru3  1  0.62532459  0.36349087  0.43077088  1
