# generated using pymatgen
data_ScSnAu
_symmetry_space_group_name_H-M   'P 1'
_cell_length_a   3.67715497
_cell_length_b   4.89819266
_cell_length_c   4.92062781
_cell_angle_alpha   61.06066885
_cell_angle_beta   67.63586280
_cell_angle_gamma   68.06807290
_symmetry_Int_Tables_number   1
_chemical_formula_structural   ScSnAu
_chemical_formula_sum   'Sc1 Sn1 Au1'
_cell_volume   69.73533423
_cell_formula_units_Z   1
loop_
 _symmetry_equiv_pos_site_id
 _symmetry_equiv_pos_as_xyz
  1  'x, y, z'
loop_
 _atom_site_type_symbol
 _atom_site_label
 _atom_site_symmetry_multiplicity
 _atom_site_fract_x
 _atom_site_fract_y
 _atom_site_fract_z
 _atom_site_occupancy
  Sc  Sc0  1  0.53651214  0.52704312  0.59583291  1
  Sn  Sn1  1  -0.26788551  -0.17154830  -0.10215407  1
  Au  Au2  1  0.32779337  0.23512518  0.30614116  1
