# generated using pymatgen
data_Si2HPt2
_symmetry_space_group_name_H-M   'P 1'
_cell_length_a   4.66736449
_cell_length_b   4.53845744
_cell_length_c   7.59767450
_cell_angle_alpha   72.58981623
_cell_angle_beta   80.24034942
_cell_angle_gamma   79.25518278
_symmetry_Int_Tables_number   1
_chemical_formula_structural   Si2HPt2
_chemical_formula_sum   'Si4 H2 Pt4'
_cell_volume   149.75884889
_cell_formula_units_Z   2
loop_
 _symmetry_equiv_pos_site_id
 _symmetry_equiv_pos_as_xyz
  1  'x, y, z'
loop_
 _atom_site_type_symbol
 _atom_site_label
 _atom_site_symmetry_multiplicity
 _atom_site_fract_x
 _atom_site_fract_y
 _atom_site_fract_z
 _atom_site_occupancy
  Si  Si0  1  -0.03787465  0.91667655  0.50169766  1
  Si  Si1  1  0.54096606  0.50168438  0.66214599  1
  Si  Si2  1  0.98903030  0.40304176  0.92063418  1
  Si  Si3  1  0.32051002  0.93300873  0.11375327  1
  H  H4  1  0.77346869  0.79376129  0.26786065  1
  H  H5  1  0.44789202  0.19168711  0.59071078  1
  Pt  Pt6  1  0.86293943  -0.13225474  0.02025237  1
  Pt  Pt7  1  0.45593744  0.47058565  -0.00118916  1
  Pt  Pt8  1  0.06513345  0.33620670  0.61885018  1
  Pt  Pt9  1  0.48194724  -0.04202743  0.39540408  1
