# generated using pymatgen
data_SiF
_symmetry_space_group_name_H-M   'P 1'
_cell_length_a   4.86656792
_cell_length_b   2.49711673
_cell_length_c   3.36739449
_cell_angle_alpha   49.35838091
_cell_angle_beta   52.16248574
_cell_angle_gamma   66.18865781
_symmetry_Int_Tables_number   1
_chemical_formula_structural   SiF
_chemical_formula_sum   'Si1 F1'
_cell_volume   24.52240228
_cell_formula_units_Z   1
loop_
 _symmetry_equiv_pos_site_id
 _symmetry_equiv_pos_as_xyz
  1  'x, y, z'
loop_
 _atom_site_type_symbol
 _atom_site_label
 _atom_site_symmetry_multiplicity
 _atom_site_fract_x
 _atom_site_fract_y
 _atom_site_fract_z
 _atom_site_occupancy
  Si  Si0  1  -0.01595768  0.27243129  -0.06167170  1
  F  F1  1  0.44049768  0.27068871  0.50396170  1
