# generated using pymatgen
data_SiIr3
_symmetry_space_group_name_H-M   'P 1'
_cell_length_a   6.96797085
_cell_length_b   6.56938657
_cell_length_c   5.37438356
_cell_angle_alpha   144.84823529
_cell_angle_beta   118.58928714
_cell_angle_gamma   66.97055964
_symmetry_Int_Tables_number   1
_chemical_formula_structural   SiIr3
_chemical_formula_sum   'Si2 Ir6'
_cell_volume   124.37116974
_cell_formula_units_Z   2
loop_
 _symmetry_equiv_pos_site_id
 _symmetry_equiv_pos_as_xyz
  1  'x, y, z'
loop_
 _atom_site_type_symbol
 _atom_site_label
 _atom_site_symmetry_multiplicity
 _atom_site_fract_x
 _atom_site_fract_y
 _atom_site_fract_z
 _atom_site_occupancy
  Si  Si0  1  0.39036732  0.75104454  0.44141329  1
  Si  Si1  1  0.79506457  0.25351698  0.60451544  1
  Ir  Ir2  1  0.14966606  0.25097499  0.69303126  1
  Ir  Ir3  1  0.66660354  0.75312934  0.24172190  1
  Ir  Ir4  1  0.23790843  0.75163716  -0.07924599  1
  Ir  Ir5  1  0.42892982  0.25023108  0.25868170  1
  Ir  Ir6  1  0.77517060  0.75256886  -0.20887224  1
  Ir  Ir7  1  0.97788965  0.25252706  0.11108464  1
