# generated using pymatgen
data_SiRu
_symmetry_space_group_name_H-M   'P 1'
_cell_length_a   6.52696143
_cell_length_b   4.41999917
_cell_length_c   4.42275027
_cell_angle_alpha   104.27715969
_cell_angle_beta   107.80685350
_cell_angle_gamma   72.25564317
_symmetry_Int_Tables_number   1
_chemical_formula_structural   SiRu
_chemical_formula_sum   'Si4 Ru4'
_cell_volume   114.03294590
_cell_formula_units_Z   4
loop_
 _symmetry_equiv_pos_site_id
 _symmetry_equiv_pos_as_xyz
  1  'x, y, z'
loop_
 _atom_site_type_symbol
 _atom_site_label
 _atom_site_symmetry_multiplicity
 _atom_site_fract_x
 _atom_site_fract_y
 _atom_site_fract_z
 _atom_site_occupancy
  Si  Si0  1  0.05476568  0.33376390  0.55927302  1
  Si  Si1  1  0.29516168  0.60441393  0.09408949  1
  Si  Si2  1  0.55438645  0.03009076  0.25746879  1
  Si  Si3  1  0.81347833  0.86689503  0.82854481  1
  Ru  Ru4  1  -0.01655453  0.81428148  0.38286849  1
  Ru  Ru5  1  0.67760599  0.42645331  0.13223048  1
  Ru  Ru6  1  0.43058905  -0.09464610  0.65403102  1
  Ru  Ru7  1  0.12438734  0.15829768  0.03966390  1
