# generated using pymatgen
data_Sm2AsSe
_symmetry_space_group_name_H-M   'P 1'
_cell_length_a   7.27382315
_cell_length_b   4.21191879
_cell_length_c   7.24007504
_cell_angle_alpha   106.89674947
_cell_angle_beta   99.64523857
_cell_angle_gamma   90.03158382
_symmetry_Int_Tables_number   1
_chemical_formula_structural   Sm2AsSe
_chemical_formula_sum   'Sm4 As2 Se2'
_cell_volume   208.95123986
_cell_formula_units_Z   2
loop_
 _symmetry_equiv_pos_site_id
 _symmetry_equiv_pos_as_xyz
  1  'x, y, z'
loop_
 _atom_site_type_symbol
 _atom_site_label
 _atom_site_symmetry_multiplicity
 _atom_site_fract_x
 _atom_site_fract_y
 _atom_site_fract_z
 _atom_site_occupancy
  Sm  Sm0  1  0.71322148  0.68647913  0.08186035  1
  Sm  Sm1  1  0.45240149  -0.06127673  0.58694593  1
  Sm  Sm2  1  0.21316169  0.18760154  0.08349293  1
  Sm  Sm3  1  -0.02632463  0.43535549  0.57877237  1
  As  As4  1  0.33986338  0.56368714  -0.16400982  1
  As  As5  1  0.08624957  0.81116128  0.32982371  1
  Se  Se6  1  -0.16330598  0.06035814  -0.17041137  1
  Se  Se7  1  0.59017299  0.31275401  0.33479589  1
