# generated using pymatgen
data_Sm2MnGa6
_symmetry_space_group_name_H-M   'P 1'
_cell_length_a   4.72216255
_cell_length_b   7.73767121
_cell_length_c   6.19098034
_cell_angle_alpha   55.03357698
_cell_angle_beta   76.75357133
_cell_angle_gamma   80.13151406
_symmetry_Int_Tables_number   1
_chemical_formula_structural   Sm2MnGa6
_chemical_formula_sum   'Sm2 Mn1 Ga6'
_cell_volume   180.21591042
_cell_formula_units_Z   1
loop_
 _symmetry_equiv_pos_site_id
 _symmetry_equiv_pos_as_xyz
  1  'x, y, z'
loop_
 _atom_site_type_symbol
 _atom_site_label
 _atom_site_symmetry_multiplicity
 _atom_site_fract_x
 _atom_site_fract_y
 _atom_site_fract_z
 _atom_site_occupancy
  Sm  Sm0  1  0.81975489  0.94803340  0.85554596  1
  Sm  Sm1  1  0.30137930  0.15581255  0.23456865  1
  Mn  Mn2  1  0.09194303  0.55727799  0.29489204  1
  Ga  Ga3  1  0.87689487  0.81385929  0.44510374  1
  Ga  Ga4  1  0.45458599  0.67870270  0.39110023  1
  Ga  Ga5  1  0.72108543  0.44116470  0.19669480  1
  Ga  Ga6  1  0.32134723  0.25749185  0.66125379  1
  Ga  Ga7  1  0.79143632  0.38614235  0.78021806  1
  Ga  Ga8  1  0.35958294  0.69114517  0.83292274  1
