# generated using pymatgen
data_Sm3Al
_symmetry_space_group_name_H-M   'P 1'
_cell_length_a   6.23213667
_cell_length_b   6.21330418
_cell_length_c   8.30377323
_cell_angle_alpha   78.44158551
_cell_angle_beta   131.81506191
_cell_angle_gamma   99.22339408
_symmetry_Int_Tables_number   1
_chemical_formula_structural   Sm3Al
_chemical_formula_sum   'Sm6 Al2'
_cell_volume   234.62733695
_cell_formula_units_Z   2
loop_
 _symmetry_equiv_pos_site_id
 _symmetry_equiv_pos_as_xyz
  1  'x, y, z'
loop_
 _atom_site_type_symbol
 _atom_site_label
 _atom_site_symmetry_multiplicity
 _atom_site_fract_x
 _atom_site_fract_y
 _atom_site_fract_z
 _atom_site_occupancy
  Sm  Sm0  1  0.67239261  0.14543985  0.60151302  1
  Sm  Sm1  1  0.27194322  0.25974910  0.69694923  1
  Sm  Sm2  1  0.90859305  0.65203884  0.70416037  1
  Sm  Sm3  1  -0.86408288  0.78365747  0.40256686  1
  Sm  Sm4  1  0.42290407  0.93667129  -0.85094790  1
  Sm  Sm5  1  0.01184402  0.32604138  0.13609588  1
  Al  Al6  1  0.57491360  0.45233146  0.18402836  1
  Al  Al7  1  0.61899230  0.77084062  0.90926417  1
