# generated using pymatgen
data_SmBi
_symmetry_space_group_name_H-M   'P 1'
_cell_length_a   4.22306467
_cell_length_b   5.02390461
_cell_length_c   3.59486854
_cell_angle_alpha   56.74530152
_cell_angle_beta   76.37436713
_cell_angle_gamma   85.31481483
_symmetry_Int_Tables_number   1
_chemical_formula_structural   SmBi
_chemical_formula_sum   'Sm1 Bi1'
_cell_volume   61.87887468
_cell_formula_units_Z   1
loop_
 _symmetry_equiv_pos_site_id
 _symmetry_equiv_pos_as_xyz
  1  'x, y, z'
loop_
 _atom_site_type_symbol
 _atom_site_label
 _atom_site_symmetry_multiplicity
 _atom_site_fract_x
 _atom_site_fract_y
 _atom_site_fract_z
 _atom_site_occupancy
  Sm  Sm0  1  -0.00099654  -0.00476789  0.74364918  1
  Bi  Bi1  1  0.47347654  -0.48446211  -0.34641918  1
