# generated using pymatgen
data_SmMgCd2
_symmetry_space_group_name_H-M   'P 1'
_cell_length_a   3.53338083
_cell_length_b   5.68077621
_cell_length_c   5.87201734
_cell_angle_alpha   80.87878697
_cell_angle_beta   56.60478166
_cell_angle_gamma   75.81167356
_symmetry_Int_Tables_number   1
_chemical_formula_structural   SmMgCd2
_chemical_formula_sum   'Sm1 Mg1 Cd2'
_cell_volume   95.36248010
_cell_formula_units_Z   1
loop_
 _symmetry_equiv_pos_site_id
 _symmetry_equiv_pos_as_xyz
  1  'x, y, z'
loop_
 _atom_site_type_symbol
 _atom_site_label
 _atom_site_symmetry_multiplicity
 _atom_site_fract_x
 _atom_site_fract_y
 _atom_site_fract_z
 _atom_site_occupancy
  Sm  Sm0  1  0.97176779  -0.27636684  0.60159232  1
  Mg  Mg1  1  0.19224776  0.36023897  0.09816941  1
  Cd  Cd2  1  0.89690369  -0.09633894  0.09654863  1
  Cd  Cd3  1  0.32472076  0.19283681  0.58957964  1
