# generated using pymatgen
data_SmTl2H
_symmetry_space_group_name_H-M   'P 1'
_cell_length_a   5.57002061
_cell_length_b   4.05699418
_cell_length_c   6.09260911
_cell_angle_alpha   48.12589509
_cell_angle_beta   78.78916464
_cell_angle_gamma   99.45063847
_symmetry_Int_Tables_number   1
_chemical_formula_structural   SmTl2H
_chemical_formula_sum   'Sm1 Tl2 H1'
_cell_volume   92.05619694
_cell_formula_units_Z   1
loop_
 _symmetry_equiv_pos_site_id
 _symmetry_equiv_pos_as_xyz
  1  'x, y, z'
loop_
 _atom_site_type_symbol
 _atom_site_label
 _atom_site_symmetry_multiplicity
 _atom_site_fract_x
 _atom_site_fract_y
 _atom_site_fract_z
 _atom_site_occupancy
  Sm  Sm0  1  0.65846407  0.76828458  0.76279010  1
  Tl  Tl1  1  -0.00527874  0.06897442  0.09391414  1
  Tl  Tl2  1  0.32100688  0.46921220  0.43095940  1
  H  H3  1  0.63186778  0.23397880  0.27534636  1
