# generated using pymatgen
data_SrAgAs
_symmetry_space_group_name_H-M   'P 1'
_cell_length_a   4.60823025
_cell_length_b   4.59950847
_cell_length_c   9.32740695
_cell_angle_alpha   89.52204634
_cell_angle_beta   105.44092648
_cell_angle_gamma   119.99094810
_symmetry_Int_Tables_number   1
_chemical_formula_structural   SrAgAs
_chemical_formula_sum   'Sr2 Ag2 As2'
_cell_volume   163.19543446
_cell_formula_units_Z   2
loop_
 _symmetry_equiv_pos_site_id
 _symmetry_equiv_pos_as_xyz
  1  'x, y, z'
loop_
 _atom_site_type_symbol
 _atom_site_label
 _atom_site_symmetry_multiplicity
 _atom_site_fract_x
 _atom_site_fract_y
 _atom_site_fract_z
 _atom_site_occupancy
  Sr  Sr0  1  0.55823700  0.75018904  0.53458630  1
  Sr  Sr1  1  -0.10925404  -0.09289539  0.00393843  1
  Ag  Ag2  1  0.05820655  0.49495086  0.76984056  1
  Ag  Ag3  1  0.72167963  0.32006338  0.23704151  1
  As  As4  1  0.36847385  0.15160420  0.73726386  1
  As  As5  1  0.35898702  0.63816791  0.19297933  1
