# generated using pymatgen
data_SrAl2Te5
_symmetry_space_group_name_H-M   'P 1'
_cell_length_a   6.69124466
_cell_length_b   6.84461429
_cell_length_c   8.04544693
_cell_angle_alpha   70.60270629
_cell_angle_beta   65.86572538
_cell_angle_gamma   60.71003027
_symmetry_Int_Tables_number   1
_chemical_formula_structural   SrAl2Te5
_chemical_formula_sum   'Sr1 Al2 Te5'
_cell_volume   289.20871347
_cell_formula_units_Z   1
loop_
 _symmetry_equiv_pos_site_id
 _symmetry_equiv_pos_as_xyz
  1  'x, y, z'
loop_
 _atom_site_type_symbol
 _atom_site_label
 _atom_site_symmetry_multiplicity
 _atom_site_fract_x
 _atom_site_fract_y
 _atom_site_fract_z
 _atom_site_occupancy
  Sr  Sr0  1  0.56873600  0.03757252  0.08037050  1
  Al  Al1  1  0.33167054  0.51858487  0.57459469  1
  Al  Al2  1  0.82149409  0.51857232  0.57366618  1
  Te  Te3  1  0.20703118  0.53939590  0.28874387  1
  Te  Te4  1  0.42261834  0.86535644  0.53461751  1
  Te  Te5  1  0.72734462  0.17077492  0.62182924  1
  Te  Te6  1  0.93733558  0.51388026  0.86169283  1
  Te  Te7  1  0.07183965  0.03925278  0.06952518  1
