# generated using pymatgen
data_SrAs3
_symmetry_space_group_name_H-M   'P 1'
_cell_length_a   5.99818026
_cell_length_b   5.86043833
_cell_length_c   8.79564556
_cell_angle_alpha   55.32575026
_cell_angle_beta   68.34375835
_cell_angle_gamma   72.12765945
_symmetry_Int_Tables_number   1
_chemical_formula_structural   SrAs3
_chemical_formula_sum   'Sr2 As6'
_cell_volume   234.41642841
_cell_formula_units_Z   2
loop_
 _symmetry_equiv_pos_site_id
 _symmetry_equiv_pos_as_xyz
  1  'x, y, z'
loop_
 _atom_site_type_symbol
 _atom_site_label
 _atom_site_symmetry_multiplicity
 _atom_site_fract_x
 _atom_site_fract_y
 _atom_site_fract_z
 _atom_site_occupancy
  Sr  Sr0  1  0.35130190  0.37423450  0.31940462  1
  Sr  Sr1  1  0.65944809  0.52127025  0.68418918  1
  As  As2  1  0.83654878  0.11186605  0.51337944  1
  As  As3  1  0.04630369  0.31354293  0.93439224  1
  As  As4  1  0.38706980  0.06697778  0.08377338  1
  As  As5  1  0.61752968  0.83771840  0.90046256  1
  As  As6  1  0.92254582  0.59619516  0.08093109  1
  As  As7  1  0.17104225  0.71296492  0.55537749  1
