# generated using pymatgen
data_SrCaDyBi
_symmetry_space_group_name_H-M   'P 1'
_cell_length_a   6.30545104
_cell_length_b   6.94886468
_cell_length_c   4.46153133
_cell_angle_alpha   71.06291185
_cell_angle_beta   70.25493422
_cell_angle_gamma   58.78736875
_symmetry_Int_Tables_number   1
_chemical_formula_structural   SrCaDyBi
_chemical_formula_sum   'Sr1 Ca1 Dy1 Bi1'
_cell_volume   154.62277523
_cell_formula_units_Z   1
loop_
 _symmetry_equiv_pos_site_id
 _symmetry_equiv_pos_as_xyz
  1  'x, y, z'
loop_
 _atom_site_type_symbol
 _atom_site_label
 _atom_site_symmetry_multiplicity
 _atom_site_fract_x
 _atom_site_fract_y
 _atom_site_fract_z
 _atom_site_occupancy
  Sr  Sr0  1  0.81378127  0.67249293  0.68407721  1
  Ca  Ca1  1  0.23823459  0.09148858  0.25950664  1
  Dy  Dy2  1  0.51464421  0.38818357  0.46504646  1
  Bi  Bi3  1  -0.15208008  0.05986492  -0.02991032  1
