# generated using pymatgen
data_SrCd2Pd
_symmetry_space_group_name_H-M   'P 1'
_cell_length_a   7.45890844
_cell_length_b   6.57433940
_cell_length_c   7.40307692
_cell_angle_alpha   84.72612072
_cell_angle_beta   81.05261472
_cell_angle_gamma   141.55951345
_symmetry_Int_Tables_number   1
_chemical_formula_structural   SrCd2Pd
_chemical_formula_sum   'Sr2 Cd4 Pd2'
_cell_volume   209.01094600
_cell_formula_units_Z   2
loop_
 _symmetry_equiv_pos_site_id
 _symmetry_equiv_pos_as_xyz
  1  'x, y, z'
loop_
 _atom_site_type_symbol
 _atom_site_label
 _atom_site_symmetry_multiplicity
 _atom_site_fract_x
 _atom_site_fract_y
 _atom_site_fract_z
 _atom_site_occupancy
  Sr  Sr0  1  -0.07408804  -0.23033656  0.05031607  1
  Sr  Sr1  1  0.91837283  0.24701192  0.30560714  1
  Cd  Cd2  1  0.61986078  0.31546362  0.69390569  1
  Cd  Cd3  1  0.29234685  0.37365379  0.58732329  1
  Cd  Cd4  1  0.25634593  -0.04142384  0.43131706  1
  Cd  Cd5  1  0.60289681  0.81570485  0.83233832  1
  Pd  Pd6  1  0.48793514  0.02301013  0.07586110  1
  Pd  Pd7  1  0.09311971  -0.45998391  0.78891134  1
