# generated using pymatgen
data_SrPrFeCo
_symmetry_space_group_name_H-M   'P 1'
_cell_length_a   7.28011603
_cell_length_b   4.03795620
_cell_length_c   5.54214301
_cell_angle_alpha   136.62734953
_cell_angle_beta   101.18882434
_cell_angle_gamma   74.52468555
_symmetry_Int_Tables_number   1
_chemical_formula_structural   SrPrFeCo
_chemical_formula_sum   'Sr1 Pr1 Fe1 Co1'
_cell_volume   107.82829131
_cell_formula_units_Z   1
loop_
 _symmetry_equiv_pos_site_id
 _symmetry_equiv_pos_as_xyz
  1  'x, y, z'
loop_
 _atom_site_type_symbol
 _atom_site_label
 _atom_site_symmetry_multiplicity
 _atom_site_fract_x
 _atom_site_fract_y
 _atom_site_fract_z
 _atom_site_occupancy
  Sr  Sr0  1  0.73447984  0.80036242  0.50783130  1
  Pr  Pr1  1  0.22476117  0.04634573  0.50657712  1
  Fe  Fe2  1  0.43056074  -0.05292646  0.00548391  1
  Co  Co3  1  0.11657825  0.09721831  0.00696767  1
