# generated using pymatgen
data_SrTlHg2
_symmetry_space_group_name_H-M   'P 1'
_cell_length_a   5.24231984
_cell_length_b   5.25894459
_cell_length_c   7.30860989
_cell_angle_alpha   54.38550853
_cell_angle_beta   54.62370262
_cell_angle_gamma   61.11551837
_symmetry_Int_Tables_number   1
_chemical_formula_structural   SrTlHg2
_chemical_formula_sum   'Sr1 Tl1 Hg2'
_cell_volume   130.28391743
_cell_formula_units_Z   1
loop_
 _symmetry_equiv_pos_site_id
 _symmetry_equiv_pos_as_xyz
  1  'x, y, z'
loop_
 _atom_site_type_symbol
 _atom_site_label
 _atom_site_symmetry_multiplicity
 _atom_site_fract_x
 _atom_site_fract_y
 _atom_site_fract_z
 _atom_site_occupancy
  Sr  Sr0  1  0.21414253  0.17117291  0.21728558  1
  Tl  Tl1  1  0.75845723  0.71541982  0.83096826  1
  Hg  Hg2  1  0.02457299  -0.01816367  -0.04638630  1
  Hg  Hg3  1  0.58688724  0.54182095  0.57055246  1
