# generated using pymatgen
data_SrZnF3
_symmetry_space_group_name_H-M   'P 1'
_cell_length_a   4.43587916
_cell_length_b   4.33681932
_cell_length_c   4.19563846
_cell_angle_alpha   98.55520584
_cell_angle_beta   89.96209891
_cell_angle_gamma   85.55253990
_symmetry_Int_Tables_number   1
_chemical_formula_structural   SrZnF3
_chemical_formula_sum   'Sr1 Zn1 F3'
_cell_volume   79.56950824
_cell_formula_units_Z   1
loop_
 _symmetry_equiv_pos_site_id
 _symmetry_equiv_pos_as_xyz
  1  'x, y, z'
loop_
 _atom_site_type_symbol
 _atom_site_label
 _atom_site_symmetry_multiplicity
 _atom_site_fract_x
 _atom_site_fract_y
 _atom_site_fract_z
 _atom_site_occupancy
  Sr  Sr0  1  0.83561499  -0.07129444  0.92291064  1
  Zn  Zn1  1  0.38959023  0.45610176  0.42953184  1
  F  F2  1  0.33192827  -0.06035354  0.66185840  1
  F  F3  1  0.92285647  0.60806871  0.37719761  1
  F  F4  1  0.57079004  0.44617752  0.90110150  1
