# generated using pymatgen
data_SrZn2
_symmetry_space_group_name_H-M   'P 1'
_cell_length_a   4.48364885
_cell_length_b   6.11264296
_cell_length_c   7.94436440
_cell_angle_alpha   63.86913046
_cell_angle_beta   56.46823095
_cell_angle_gamma   68.91919841
_symmetry_Int_Tables_number   1
_chemical_formula_structural   SrZn2
_chemical_formula_sum   'Sr2 Zn4'
_cell_volume   160.96247385
_cell_formula_units_Z   2
loop_
 _symmetry_equiv_pos_site_id
 _symmetry_equiv_pos_as_xyz
  1  'x, y, z'
loop_
 _atom_site_type_symbol
 _atom_site_label
 _atom_site_symmetry_multiplicity
 _atom_site_fract_x
 _atom_site_fract_y
 _atom_site_fract_z
 _atom_site_occupancy
  Sr  Sr0  1  0.00215953  0.90949581  0.36957314  1
  Sr  Sr1  1  -0.07042866  0.19295854  0.79769843  1
  Zn  Zn2  1  0.37853559  0.35062596  0.27453968  1
  Zn  Zn3  1  0.54951058  0.72134512  0.91767769  1
  Zn  Zn4  1  0.25582983  0.64674491  0.74515797  1
  Zn  Zn5  1  0.87395312  0.57651965  0.16652309  1
