# generated using pymatgen
data_TaGa3
_symmetry_space_group_name_H-M   'P 1'
_cell_length_a   4.88851449
_cell_length_b   2.95573953
_cell_length_c   5.45135822
_cell_angle_alpha   105.69137793
_cell_angle_beta   116.89718996
_cell_angle_gamma   90.18330954
_symmetry_Int_Tables_number   1
_chemical_formula_structural   TaGa3
_chemical_formula_sum   'Ta1 Ga3'
_cell_volume   66.90164233
_cell_formula_units_Z   1
loop_
 _symmetry_equiv_pos_site_id
 _symmetry_equiv_pos_as_xyz
  1  'x, y, z'
loop_
 _atom_site_type_symbol
 _atom_site_label
 _atom_site_symmetry_multiplicity
 _atom_site_fract_x
 _atom_site_fract_y
 _atom_site_fract_z
 _atom_site_occupancy
  Ta  Ta0  1  0.06159317  0.07164080  -0.01587616  1
  Ga  Ga1  1  0.54818488  0.57799685  -0.01373153  1
  Ga  Ga2  1  0.12848686  0.81230936  0.47413276  1
  Ga  Ga3  1  0.63739509  0.32537299  0.49637493  1
