# generated using pymatgen
data_TaOs3
_symmetry_space_group_name_H-M   'P 1'
_cell_length_a   4.38675817
_cell_length_b   2.77506145
_cell_length_c   5.16573578
_cell_angle_alpha   79.16999843
_cell_angle_beta   90.08685510
_cell_angle_gamma   90.08439811
_symmetry_Int_Tables_number   1
_chemical_formula_structural   TaOs3
_chemical_formula_sum   'Ta1 Os3'
_cell_volume   61.76504133
_cell_formula_units_Z   1
loop_
 _symmetry_equiv_pos_site_id
 _symmetry_equiv_pos_as_xyz
  1  'x, y, z'
loop_
 _atom_site_type_symbol
 _atom_site_label
 _atom_site_symmetry_multiplicity
 _atom_site_fract_x
 _atom_site_fract_y
 _atom_site_fract_z
 _atom_site_occupancy
  Ta  Ta0  1  0.00981319  0.39114128  0.61104529  1
  Os  Os1  1  0.00943688  0.02871421  0.11643434  1
  Os  Os2  1  0.50970173  -0.04853563  0.37907196  1
  Os  Os3  1  0.50934821  0.62927014  -0.07863158  1
