# generated using pymatgen
data_Tb2ZnIn
_symmetry_space_group_name_H-M   'P 1'
_cell_length_a   8.57509038
_cell_length_b   4.12548181
_cell_length_c   5.40359484
_cell_angle_alpha   40.22196392
_cell_angle_beta   52.19508641
_cell_angle_gamma   60.99106590
_symmetry_Int_Tables_number   1
_chemical_formula_structural   Tb2ZnIn
_chemical_formula_sum   'Tb2 Zn1 In1'
_cell_volume   97.47777659
_cell_formula_units_Z   1
loop_
 _symmetry_equiv_pos_site_id
 _symmetry_equiv_pos_as_xyz
  1  'x, y, z'
loop_
 _atom_site_type_symbol
 _atom_site_label
 _atom_site_symmetry_multiplicity
 _atom_site_fract_x
 _atom_site_fract_y
 _atom_site_fract_z
 _atom_site_occupancy
  Tb  Tb0  1  -0.00983794  -0.12408940  -0.00183457  1
  Tb  Tb1  1  0.51835862  0.87249537  0.47227871  1
  Zn  Zn2  1  0.75612090  -0.12368261  0.73227917  1
  In  In3  1  0.25412843  -0.12634336  0.23597669  1
