# generated using pymatgen
data_TbAl3Ag
_symmetry_space_group_name_H-M   'P 1'
_cell_length_a   5.59874353
_cell_length_b   4.76655115
_cell_length_c   6.00696482
_cell_angle_alpha   78.05742102
_cell_angle_beta   46.84129297
_cell_angle_gamma   100.90960791
_symmetry_Int_Tables_number   1
_chemical_formula_structural   TbAl3Ag
_chemical_formula_sum   'Tb1 Al3 Ag1'
_cell_volume   101.37336123
_cell_formula_units_Z   1
loop_
 _symmetry_equiv_pos_site_id
 _symmetry_equiv_pos_as_xyz
  1  'x, y, z'
loop_
 _atom_site_type_symbol
 _atom_site_label
 _atom_site_symmetry_multiplicity
 _atom_site_fract_x
 _atom_site_fract_y
 _atom_site_fract_z
 _atom_site_occupancy
  Tb  Tb0  1  0.00772357  0.06674133  0.01340442  1
  Al  Al1  1  0.16370640  0.72546132  0.56963373  1
  Al  Al2  1  0.54871292  0.76726495  0.78136677  1
  Al  Al3  1  0.46756261  0.36886016  0.23799836  1
  Ag  Ag4  1  0.85615450  0.40654225  0.45501673  1
