# generated using pymatgen
data_TbAl2
_symmetry_space_group_name_H-M   'P 1'
_cell_length_a   10.21275010
_cell_length_b   8.21449523
_cell_length_c   8.21948197
_cell_angle_alpha   29.12105014
_cell_angle_beta   35.72428570
_cell_angle_gamma   24.01756624
_symmetry_Int_Tables_number   1
_chemical_formula_structural   TbAl2
_chemical_formula_sum   'Tb2 Al4'
_cell_volume   136.24925674
_cell_formula_units_Z   2
loop_
 _symmetry_equiv_pos_site_id
 _symmetry_equiv_pos_as_xyz
  1  'x, y, z'
loop_
 _atom_site_type_symbol
 _atom_site_label
 _atom_site_symmetry_multiplicity
 _atom_site_fract_x
 _atom_site_fract_y
 _atom_site_fract_z
 _atom_site_occupancy
  Tb  Tb0  1  0.91288673  0.45468763  0.72634294  1
  Tb  Tb1  1  0.15792195  0.46667013  -0.01526710  1
  Al  Al2  1  0.32632449  0.62684682  0.31402915  1
  Al  Al3  1  0.48746192  0.30296459  0.14966313  1
  Al  Al4  1  -0.25673964  0.29277435  0.40000445  1
  Al  Al5  1  0.58285454  -0.38119351  0.56172743  1
