# generated using pymatgen
data_TbCoC
_symmetry_space_group_name_H-M   'P 1'
_cell_length_a   3.65390136
_cell_length_b   3.66160912
_cell_length_c   7.06241197
_cell_angle_alpha   93.79499065
_cell_angle_beta   93.91984190
_cell_angle_gamma   76.28307033
_symmetry_Int_Tables_number   1
_chemical_formula_structural   TbCoC
_chemical_formula_sum   'Tb2 Co2 C2'
_cell_volume   91.45764592
_cell_formula_units_Z   2
loop_
 _symmetry_equiv_pos_site_id
 _symmetry_equiv_pos_as_xyz
  1  'x, y, z'
loop_
 _atom_site_type_symbol
 _atom_site_label
 _atom_site_symmetry_multiplicity
 _atom_site_fract_x
 _atom_site_fract_y
 _atom_site_fract_z
 _atom_site_occupancy
  Tb  Tb0  1  -0.07306111  -0.06922482  0.82250906  1
  Tb  Tb1  1  -0.01337620  -0.00909932  0.33912315  1
  Co  Co2  1  0.57067770  0.57489869  0.08080998  1
  Co  Co3  1  0.48619250  0.49198699  0.57564749  1
  C  C4  1  0.40968268  0.10743532  0.08000889  1
  C  C5  1  0.10300443  0.41340314  0.07965143  1
