# generated using pymatgen
data_TbGeAu
_symmetry_space_group_name_H-M   'P 1'
_cell_length_a   5.64140624
_cell_length_b   4.47914558
_cell_length_c   7.64857418
_cell_angle_alpha   125.68786492
_cell_angle_beta   87.37160294
_cell_angle_gamma   113.53359500
_symmetry_Int_Tables_number   1
_chemical_formula_structural   TbGeAu
_chemical_formula_sum   'Tb2 Ge2 Au2'
_cell_volume   139.30299779
_cell_formula_units_Z   2
loop_
 _symmetry_equiv_pos_site_id
 _symmetry_equiv_pos_as_xyz
  1  'x, y, z'
loop_
 _atom_site_type_symbol
 _atom_site_label
 _atom_site_symmetry_multiplicity
 _atom_site_fract_x
 _atom_site_fract_y
 _atom_site_fract_z
 _atom_site_occupancy
  Tb  Tb0  1  0.20950934  0.07351419  0.79307479  1
  Tb  Tb1  1  -0.25430819  -0.13347279  0.32226382  1
  Ge  Ge2  1  0.67173622  -0.03317062  -0.04315663  1
  Ge  Ge3  1  0.12349996  0.52192867  0.29043198  1
  Au  Au4  1  0.82173187  0.38207129  0.79608106  1
  Au  Au5  1  0.30240080  -0.00077074  0.17772497  1
