# generated using pymatgen
data_TbIn
_symmetry_space_group_name_H-M   'P 1'
_cell_length_a   3.71939958
_cell_length_b   3.86295441
_cell_length_c   3.74666706
_cell_angle_alpha   89.96900710
_cell_angle_beta   89.90699321
_cell_angle_gamma   90.02837727
_symmetry_Int_Tables_number   1
_chemical_formula_structural   TbIn
_chemical_formula_sum   'Tb1 In1'
_cell_volume   53.83154356
_cell_formula_units_Z   1
loop_
 _symmetry_equiv_pos_site_id
 _symmetry_equiv_pos_as_xyz
  1  'x, y, z'
loop_
 _atom_site_type_symbol
 _atom_site_label
 _atom_site_symmetry_multiplicity
 _atom_site_fract_x
 _atom_site_fract_y
 _atom_site_fract_z
 _atom_site_occupancy
  Tb  Tb0  1  -0.06414739  -0.00498375  -0.03507748  1
  In  In1  1  0.43773739  0.49606375  0.46575748  1
