# generated using pymatgen
data_TbPbAu
_symmetry_space_group_name_H-M   'P 1'
_cell_length_a   3.61044075
_cell_length_b   6.41721204
_cell_length_c   5.13682207
_cell_angle_alpha   65.92703507
_cell_angle_beta   45.58629771
_cell_angle_gamma   73.11221102
_symmetry_Int_Tables_number   1
_chemical_formula_structural   TbPbAu
_chemical_formula_sum   'Tb1 Pb1 Au1'
_cell_volume   77.61677260
_cell_formula_units_Z   1
loop_
 _symmetry_equiv_pos_site_id
 _symmetry_equiv_pos_as_xyz
  1  'x, y, z'
loop_
 _atom_site_type_symbol
 _atom_site_label
 _atom_site_symmetry_multiplicity
 _atom_site_fract_x
 _atom_site_fract_y
 _atom_site_fract_z
 _atom_site_occupancy
  Tb  Tb0  1  0.26764804  0.55064890  0.61901909  1
  Pb  Pb1  1  0.26338258  -0.04508656  -0.08277848  1
  Au  Au2  1  0.27063937  0.29386766  0.24765939  1
