# generated using pymatgen
data_TbSe
_symmetry_space_group_name_H-M   'P 1'
_cell_length_a   4.58321395
_cell_length_b   4.52702950
_cell_length_c   4.54360709
_cell_angle_alpha   59.91252070
_cell_angle_beta   59.63132702
_cell_angle_gamma   59.71812969
_symmetry_Int_Tables_number   1
_chemical_formula_structural   TbSe
_chemical_formula_sum   'Tb1 Se1'
_cell_volume   66.28737921
_cell_formula_units_Z   1
loop_
 _symmetry_equiv_pos_site_id
 _symmetry_equiv_pos_as_xyz
  1  'x, y, z'
loop_
 _atom_site_type_symbol
 _atom_site_label
 _atom_site_symmetry_multiplicity
 _atom_site_fract_x
 _atom_site_fract_y
 _atom_site_fract_z
 _atom_site_occupancy
  Tb  Tb0  1  0.12685145  0.53165728  0.50754573  1
  Se  Se1  1  0.37986855  -0.22253728  -0.24432573  1
