# generated using pymatgen
data_TbTlS2
_symmetry_space_group_name_H-M   'P 1'
_cell_length_a   4.04245418
_cell_length_b   4.04491202
_cell_length_c   8.94472387
_cell_angle_alpha   62.98202641
_cell_angle_beta   63.06182837
_cell_angle_gamma   59.93201425
_symmetry_Int_Tables_number   1
_chemical_formula_structural   TbTlS2
_chemical_formula_sum   'Tb1 Tl1 S2'
_cell_volume   107.83483844
_cell_formula_units_Z   1
loop_
 _symmetry_equiv_pos_site_id
 _symmetry_equiv_pos_as_xyz
  1  'x, y, z'
loop_
 _atom_site_type_symbol
 _atom_site_label
 _atom_site_symmetry_multiplicity
 _atom_site_fract_x
 _atom_site_fract_y
 _atom_site_fract_z
 _atom_site_occupancy
  Tb  Tb0  1  -0.02851381  0.01703848  -0.02772251  1
  Tl  Tl1  1  0.62645120  0.68283846  0.48417267  1
  S  S2  1  0.77055127  0.81975180  0.77200753  1
  S  S3  1  0.17352135  0.22167126  0.16557232  1
