# generated using pymatgen
data_TbYAg2
_symmetry_space_group_name_H-M   'P 1'
_cell_length_a   5.15743927
_cell_length_b   5.16328102
_cell_length_c   5.14816056
_cell_angle_alpha   60.02866909
_cell_angle_beta   60.18019938
_cell_angle_gamma   59.88968692
_symmetry_Int_Tables_number   1
_chemical_formula_structural   TbYAg2
_chemical_formula_sum   'Tb1 Y1 Ag2'
_cell_volume   97.00959214
_cell_formula_units_Z   1
loop_
 _symmetry_equiv_pos_site_id
 _symmetry_equiv_pos_as_xyz
  1  'x, y, z'
loop_
 _atom_site_type_symbol
 _atom_site_label
 _atom_site_symmetry_multiplicity
 _atom_site_fract_x
 _atom_site_fract_y
 _atom_site_fract_z
 _atom_site_occupancy
  Tb  Tb0  1  0.26142871  0.23247246  0.20823900  1
  Y  Y1  1  0.76196222  0.73139447  0.70862412  1
  Ag  Ag2  1  0.01113734  -0.01618236  -0.04411676  1
  Ag  Ag3  1  0.51076173  0.48123543  0.46038364  1
