# generated using pymatgen
data_TbZn2
_symmetry_space_group_name_H-M   'P 1'
_cell_length_a   4.20622490
_cell_length_b   6.37658591
_cell_length_c   4.77103677
_cell_angle_alpha   90.27514703
_cell_angle_beta   89.95458421
_cell_angle_gamma   70.83043974
_symmetry_Int_Tables_number   1
_chemical_formula_structural   TbZn2
_chemical_formula_sum   'Tb2 Zn4'
_cell_volume   120.86832000
_cell_formula_units_Z   2
loop_
 _symmetry_equiv_pos_site_id
 _symmetry_equiv_pos_as_xyz
  1  'x, y, z'
loop_
 _atom_site_type_symbol
 _atom_site_label
 _atom_site_symmetry_multiplicity
 _atom_site_fract_x
 _atom_site_fract_y
 _atom_site_fract_z
 _atom_site_occupancy
  Tb  Tb0  1  0.37138099  0.65691308  0.30749378  1
  Tb  Tb1  1  0.56067367  0.26800291  0.80472331  1
  Zn  Zn2  1  0.86373219  0.66308595  0.80692047  1
  Zn  Zn3  1  0.06831174  0.26167017  0.30537504  1
  Zn  Zn4  1  0.70256754  -0.00371980  0.30268324  1
  Zn  Zn5  1  0.22927387  0.92868769  0.80953416  1
