# generated using pymatgen
data_Te4Pt3
_symmetry_space_group_name_H-M   'P 1'
_cell_length_a   4.14169718
_cell_length_b   4.38726421
_cell_length_c   11.89897305
_cell_angle_alpha   92.85297192
_cell_angle_beta   84.36494584
_cell_angle_gamma   61.70060001
_symmetry_Int_Tables_number   1
_chemical_formula_structural   Te4Pt3
_chemical_formula_sum   'Te4 Pt3'
_cell_volume   188.30346387
_cell_formula_units_Z   1
loop_
 _symmetry_equiv_pos_site_id
 _symmetry_equiv_pos_as_xyz
  1  'x, y, z'
loop_
 _atom_site_type_symbol
 _atom_site_label
 _atom_site_symmetry_multiplicity
 _atom_site_fract_x
 _atom_site_fract_y
 _atom_site_fract_z
 _atom_site_occupancy
  Te  Te0  1  0.12525962  0.65461682  0.17962930  1
  Te  Te1  1  -0.05287391  0.19022442  0.86708698  1
  Te  Te2  1  0.74140586  0.75164444  0.59660494  1
  Te  Te3  1  0.06555938  0.24374046  0.41029178  1
  Pt  Pt4  1  0.49528841  0.97158553  0.08763909  1
  Pt  Pt5  1  0.04160417  0.12300954  0.64300141  1
  Pt  Pt6  1  0.23379647  0.56602879  0.95376650  1
