# generated using pymatgen
data_TeH
_symmetry_space_group_name_H-M   'P 1'
_cell_length_a   4.51485735
_cell_length_b   3.31690850
_cell_length_c   4.74895235
_cell_angle_alpha   47.34806447
_cell_angle_beta   58.87276001
_cell_angle_gamma   69.09335136
_symmetry_Int_Tables_number   1
_chemical_formula_structural   TeH
_chemical_formula_sum   'Te1 H1'
_cell_volume   44.77224781
_cell_formula_units_Z   1
loop_
 _symmetry_equiv_pos_site_id
 _symmetry_equiv_pos_as_xyz
  1  'x, y, z'
loop_
 _atom_site_type_symbol
 _atom_site_label
 _atom_site_symmetry_multiplicity
 _atom_site_fract_x
 _atom_site_fract_y
 _atom_site_fract_z
 _atom_site_occupancy
  Te  Te0  1  0.52757727  0.79078857  0.30715312  1
  H  H1  1  -0.03577727  -0.21649857  0.09828688  1
