# generated using pymatgen
data_TePt
_symmetry_space_group_name_H-M   'P 1'
_cell_length_a   8.33776903
_cell_length_b   7.41584271
_cell_length_c   8.32273674
_cell_angle_alpha   28.62547375
_cell_angle_beta   27.58504000
_cell_angle_gamma   28.48256335
_symmetry_Int_Tables_number   1
_chemical_formula_structural   TePt
_chemical_formula_sum   'Te2 Pt2'
_cell_volume   101.65308294
_cell_formula_units_Z   2
loop_
 _symmetry_equiv_pos_site_id
 _symmetry_equiv_pos_as_xyz
  1  'x, y, z'
loop_
 _atom_site_type_symbol
 _atom_site_label
 _atom_site_symmetry_multiplicity
 _atom_site_fract_x
 _atom_site_fract_y
 _atom_site_fract_z
 _atom_site_occupancy
  Te  Te0  1  0.80064664  0.82783840  0.01537805  1
  Te  Te1  1  0.48142187  0.01679677  -0.29628714  1
  Pt  Pt2  1  0.47255619  0.65389885  0.68827259  1
  Pt  Pt3  1  0.14518530  0.52015597  0.36422650  1
