# generated using pymatgen
data_ThInAg2
_symmetry_space_group_name_H-M   'P 1'
_cell_length_a   6.82265291
_cell_length_b   6.92622005
_cell_length_c   4.63153036
_cell_angle_alpha   53.02685891
_cell_angle_beta   54.06916003
_cell_angle_gamma   42.57169819
_symmetry_Int_Tables_number   1
_chemical_formula_structural   ThInAg2
_chemical_formula_sum   'Th1 In1 Ag2'
_cell_volume   114.02199309
_cell_formula_units_Z   1
loop_
 _symmetry_equiv_pos_site_id
 _symmetry_equiv_pos_as_xyz
  1  'x, y, z'
loop_
 _atom_site_type_symbol
 _atom_site_label
 _atom_site_symmetry_multiplicity
 _atom_site_fract_x
 _atom_site_fract_y
 _atom_site_fract_z
 _atom_site_occupancy
  Th  Th0  1  0.50579324  0.50061934  0.47204761  1
  In  In1  1  0.03592524  0.06727232  -0.07709721  1
  Ag  Ag2  1  0.21358915  0.19323781  0.15772816  1
  Ag  Ag3  1  0.83098236  0.80669052  1.00466144  1
