# generated using pymatgen
data_Ti2Cd2O7
_symmetry_space_group_name_H-M   'P 1'
_cell_length_a   5.72330869
_cell_length_b   6.26690339
_cell_length_c   6.25477929
_cell_angle_alpha   51.21029497
_cell_angle_beta   56.43715370
_cell_angle_gamma   52.60699406
_symmetry_Int_Tables_number   1
_chemical_formula_structural   Ti2Cd2O7
_chemical_formula_sum   'Ti2 Cd2 O7'
_cell_volume   133.43447198
_cell_formula_units_Z   1
loop_
 _symmetry_equiv_pos_site_id
 _symmetry_equiv_pos_as_xyz
  1  'x, y, z'
loop_
 _atom_site_type_symbol
 _atom_site_label
 _atom_site_symmetry_multiplicity
 _atom_site_fract_x
 _atom_site_fract_y
 _atom_site_fract_z
 _atom_site_occupancy
  Ti  Ti0  1  0.86750977  0.83502766  0.93264715  1
  Ti  Ti1  1  0.19721484  0.15078739  0.19669900  1
  Cd  Cd2  1  0.62739244  0.69383517  0.70540392  1
  Cd  Cd3  1  0.38465334  0.43318255  0.43422319  1
  O  O4  1  0.80965582  0.46711842  0.08737933  1
  O  O5  1  0.42081284  0.06193351  0.88535486  1
  O  O6  1  0.03388166  0.84883143  0.49985075  1
  O  O7  1  0.23742672  0.54012564  0.02359727  1
  O  O8  1  0.17279627  0.14159757  0.54904966  1
  O  O9  1  0.62794722  0.89894975  0.25273436  1
  O  O10  1  -0.15745091  0.24933092  -0.31145949  1
