# generated using pymatgen
data_Ti2NiMo
_symmetry_space_group_name_H-M   'P 1'
_cell_length_a   4.99573364
_cell_length_b   3.09233487
_cell_length_c   5.07388042
_cell_angle_alpha   68.29331113
_cell_angle_beta   55.23674852
_cell_angle_gamma   67.75884491
_symmetry_Int_Tables_number   1
_chemical_formula_structural   Ti2NiMo
_chemical_formula_sum   'Ti2 Ni1 Mo1'
_cell_volume   58.36674560
_cell_formula_units_Z   1
loop_
 _symmetry_equiv_pos_site_id
 _symmetry_equiv_pos_as_xyz
  1  'x, y, z'
loop_
 _atom_site_type_symbol
 _atom_site_label
 _atom_site_symmetry_multiplicity
 _atom_site_fract_x
 _atom_site_fract_y
 _atom_site_fract_z
 _atom_site_occupancy
  Ti  Ti0  1  0.00471652  -0.00170225  -0.00413828  1
  Ti  Ti1  1  0.51053567  0.50214081  0.50416487  1
  Ni  Ni2  1  0.75928634  0.75119850  0.74797187  1
  Mo  Mo3  1  0.25890147  0.25042294  0.24898153  1
