# generated using pymatgen
data_Ti2Sn
_symmetry_space_group_name_H-M   'P 1'
_cell_length_a   3.04032634
_cell_length_b   5.06625213
_cell_length_c   9.34887513
_cell_angle_alpha   63.74479202
_cell_angle_beta   80.77890058
_cell_angle_gamma   107.58356795
_symmetry_Int_Tables_number   1
_chemical_formula_structural   Ti2Sn
_chemical_formula_sum   'Ti4 Sn2'
_cell_volume   115.60874734
_cell_formula_units_Z   2
loop_
 _symmetry_equiv_pos_site_id
 _symmetry_equiv_pos_as_xyz
  1  'x, y, z'
loop_
 _atom_site_type_symbol
 _atom_site_label
 _atom_site_symmetry_multiplicity
 _atom_site_fract_x
 _atom_site_fract_y
 _atom_site_fract_z
 _atom_site_occupancy
  Ti  Ti0  1  0.68770174  0.35898226  0.13492693  1
  Ti  Ti1  1  0.03979181  0.69910044  0.79272439  1
  Ti  Ti2  1  0.14808218  0.09900711  -0.03664357  1
  Ti  Ti3  1  -0.18017554  -0.06342194  0.45997777  1
  Sn  Sn4  1  0.90349731  0.28945784  0.65248672  1
  Sn  Sn5  1  0.27677250  0.67091428  0.27296775  1
