# generated using pymatgen
data_Ti2ZnN
_symmetry_space_group_name_H-M   'P 1'
_cell_length_a   6.97208301
_cell_length_b   7.58975769
_cell_length_c   5.21240793
_cell_angle_alpha   76.84679885
_cell_angle_beta   104.34753798
_cell_angle_gamma   156.58144314
_symmetry_Int_Tables_number   1
_chemical_formula_structural   Ti2ZnN
_chemical_formula_sum   'Ti4 Zn2 N2'
_cell_volume   106.20495930
_cell_formula_units_Z   2
loop_
 _symmetry_equiv_pos_site_id
 _symmetry_equiv_pos_as_xyz
  1  'x, y, z'
loop_
 _atom_site_type_symbol
 _atom_site_label
 _atom_site_symmetry_multiplicity
 _atom_site_fract_x
 _atom_site_fract_y
 _atom_site_fract_z
 _atom_site_occupancy
  Ti  Ti0  1  0.92866489  0.20992315  0.18905509  1
  Ti  Ti1  1  0.09606614  0.71299359  0.91098749  1
  Ti  Ti2  1  0.59498978  0.21193910  0.41102537  1
  Ti  Ti3  1  0.43013665  0.71106406  0.68930737  1
  Zn  Zn4  1  -0.24384070  -0.29345166  0.13334689  1
  Zn  Zn5  1  0.26589266  0.21618346  0.63351928  1
  N  N6  1  0.26541489  0.71131354  0.30117793  1
  N  N7  1  0.76592567  0.21195476  0.80109057  1
