# generated using pymatgen
data_TiHRh2
_symmetry_space_group_name_H-M   'P 1'
_cell_length_a   4.18655723
_cell_length_b   4.23635224
_cell_length_c   4.04579948
_cell_angle_alpha   61.43208258
_cell_angle_beta   61.31858247
_cell_angle_gamma   60.55798302
_symmetry_Int_Tables_number   1
_chemical_formula_structural   TiHRh2
_chemical_formula_sum   'Ti1 H1 Rh2'
_cell_volume   51.99128957
_cell_formula_units_Z   1
loop_
 _symmetry_equiv_pos_site_id
 _symmetry_equiv_pos_as_xyz
  1  'x, y, z'
loop_
 _atom_site_type_symbol
 _atom_site_label
 _atom_site_symmetry_multiplicity
 _atom_site_fract_x
 _atom_site_fract_y
 _atom_site_fract_z
 _atom_site_occupancy
  Ti  Ti0  1  0.72101521  0.88417244  0.79284812  1
  H  H1  1  0.52198588  0.07695060  0.29013134  1
  Rh  Rh2  1  -0.02830690  0.15722291  0.03249696  1
  Rh  Rh3  1  0.45235581  0.62957406  0.55542359  1
