# generated using pymatgen
data_TiRh3
_symmetry_space_group_name_H-M   'P 1'
_cell_length_a   4.62878309
_cell_length_b   2.80679371
_cell_length_c   4.62875254
_cell_angle_alpha   90.02233420
_cell_angle_beta   107.67333061
_cell_angle_gamma   89.95789472
_symmetry_Int_Tables_number   1
_chemical_formula_structural   TiRh3
_chemical_formula_sum   'Ti1 Rh3'
_cell_volume   57.29862913
_cell_formula_units_Z   1
loop_
 _symmetry_equiv_pos_site_id
 _symmetry_equiv_pos_as_xyz
  1  'x, y, z'
loop_
 _atom_site_type_symbol
 _atom_site_label
 _atom_site_symmetry_multiplicity
 _atom_site_fract_x
 _atom_site_fract_y
 _atom_site_fract_z
 _atom_site_occupancy
  Ti  Ti0  1  0.01870436  -0.07970476  0.01120096  1
  Rh  Rh1  1  0.51928005  0.42198730  0.01015178  1
  Rh  Rh2  1  0.51874825  -0.07813284  0.51003524  1
  Rh  Rh3  1  0.01894735  0.42156030  0.51083202  1
