# generated using pymatgen
data_TiS3
_symmetry_space_group_name_H-M   'P 1'
_cell_length_a   6.00333296
_cell_length_b   4.65721097
_cell_length_c   6.15131432
_cell_angle_alpha   89.45465665
_cell_angle_beta   115.40057495
_cell_angle_gamma   89.86669777
_symmetry_Int_Tables_number   1
_chemical_formula_structural   TiS3
_chemical_formula_sum   'Ti2 S6'
_cell_volume   155.34689083
_cell_formula_units_Z   2
loop_
 _symmetry_equiv_pos_site_id
 _symmetry_equiv_pos_as_xyz
  1  'x, y, z'
loop_
 _atom_site_type_symbol
 _atom_site_label
 _atom_site_symmetry_multiplicity
 _atom_site_fract_x
 _atom_site_fract_y
 _atom_site_fract_z
 _atom_site_occupancy
  Ti  Ti0  1  0.20186133  0.72983588  0.70949365  1
  Ti  Ti1  1  0.62793773  0.23719999  0.39864676  1
  S  S2  1  0.26728821  -0.03880806  0.08368961  1
  S  S3  1  0.56243496  0.94073587  0.70882086  1
  S  S4  1  0.80086092  0.73464558  0.36824655  1
  S  S5  1  0.06054592  0.23574678  0.55923262  1
  S  S6  1  0.61115183  0.49990266  0.75788437  1
  S  S7  1  0.24395912  0.52388131  0.11853558  1
