# generated using pymatgen
data_TiTc2W
_symmetry_space_group_name_H-M   'P 1'
_cell_length_a   4.38158642
_cell_length_b   5.13799664
_cell_length_c   5.40180324
_cell_angle_alpha   58.11025032
_cell_angle_beta   35.28497537
_cell_angle_gamma   63.59567067
_symmetry_Int_Tables_number   1
_chemical_formula_structural   TiTc2W
_chemical_formula_sum   'Ti1 Tc2 W1'
_cell_volume   59.62133055
_cell_formula_units_Z   1
loop_
 _symmetry_equiv_pos_site_id
 _symmetry_equiv_pos_as_xyz
  1  'x, y, z'
loop_
 _atom_site_type_symbol
 _atom_site_label
 _atom_site_symmetry_multiplicity
 _atom_site_fract_x
 _atom_site_fract_y
 _atom_site_fract_z
 _atom_site_occupancy
  Ti  Ti0  1  0.43289631  0.38474602  0.77673453  1
  Tc  Tc1  1  0.43232221  0.38486163  0.27719017  1
  Tc  Tc2  1  0.93391228  0.88913422  0.52516535  1
  W  W3  1  -0.06514080  -0.10672186  0.02192994  1
