# generated using pymatgen
data_TiTl2F6
_symmetry_space_group_name_H-M   'P 1'
_cell_length_a   5.38730356
_cell_length_b   5.95809134
_cell_length_c   5.69506974
_cell_angle_alpha   70.32457322
_cell_angle_beta   91.24714924
_cell_angle_gamma   105.94926235
_symmetry_Int_Tables_number   1
_chemical_formula_structural   TiTl2F6
_chemical_formula_sum   'Ti1 Tl2 F6'
_cell_volume   164.99567005
_cell_formula_units_Z   1
loop_
 _symmetry_equiv_pos_site_id
 _symmetry_equiv_pos_as_xyz
  1  'x, y, z'
loop_
 _atom_site_type_symbol
 _atom_site_label
 _atom_site_symmetry_multiplicity
 _atom_site_fract_x
 _atom_site_fract_y
 _atom_site_fract_z
 _atom_site_occupancy
  Ti  Ti0  1  -0.01141334  -0.14821450  0.01582907  1
  Tl  Tl1  1  0.69137788  0.16254540  0.36049680  1
  Tl  Tl2  1  0.28338184  0.53938606  0.67260582  1
  F  F3  1  0.85678276  0.13201829  0.88958585  1
  F  F4  1  0.79933573  0.70681912  0.79387527  1
  F  F5  1  0.26961078  0.01932675  0.76824250  1
  F  F6  1  0.17887300  0.99724285  0.23730520  1
  F  F7  1  0.12066634  0.57175390  0.14316389  1
  F  F8  1  0.70700501  0.68722213  0.26282560  1
