# generated using pymatgen
data_TiZnIr2
_symmetry_space_group_name_H-M   'P 1'
_cell_length_a   4.71635717
_cell_length_b   4.71370298
_cell_length_c   5.73015701
_cell_angle_alpha   50.48239919
_cell_angle_beta   50.46876851
_cell_angle_gamma   44.79227261
_symmetry_Int_Tables_number   1
_chemical_formula_structural   TiZnIr2
_chemical_formula_sum   'Ti1 Zn1 Ir2'
_cell_volume   65.10561387
_cell_formula_units_Z   1
loop_
 _symmetry_equiv_pos_site_id
 _symmetry_equiv_pos_as_xyz
  1  'x, y, z'
loop_
 _atom_site_type_symbol
 _atom_site_label
 _atom_site_symmetry_multiplicity
 _atom_site_fract_x
 _atom_site_fract_y
 _atom_site_fract_z
 _atom_site_occupancy
  Ti  Ti0  1  0.25598790  0.25679696  0.28492898  1
  Zn  Zn1  1  0.84910408  0.84941276  0.84495298  1
  Ir  Ir2  1  0.07505603  0.07474461  -0.02279960  1
  Ir  Ir3  1  0.47178199  0.47136567  0.42694765  1
