# generated using pymatgen
data_Tl3AsSe3
_symmetry_space_group_name_H-M   'P 1'
_cell_length_a   5.25458701
_cell_length_b   7.59471832
_cell_length_c   7.49849479
_cell_angle_alpha   124.82838910
_cell_angle_beta   90.64719479
_cell_angle_gamma   91.66539835
_symmetry_Int_Tables_number   1
_chemical_formula_structural   Tl3AsSe3
_chemical_formula_sum   'Tl3 As1 Se3'
_cell_volume   245.39302366
_cell_formula_units_Z   1
loop_
 _symmetry_equiv_pos_site_id
 _symmetry_equiv_pos_as_xyz
  1  'x, y, z'
loop_
 _atom_site_type_symbol
 _atom_site_label
 _atom_site_symmetry_multiplicity
 _atom_site_fract_x
 _atom_site_fract_y
 _atom_site_fract_z
 _atom_site_occupancy
  Tl  Tl0  1  0.16319372  0.52585044  -0.03017699  1
  Tl  Tl1  1  0.17371907  0.14836981  0.15333923  1
  Tl  Tl2  1  0.18313221  -0.03240548  0.53022762  1
  As  As3  1  0.68442313  0.75223200  0.75487627  1
  Se  Se4  1  0.12929718  0.63869464  0.64032288  1
  Se  Se5  1  0.69630933  0.83236659  0.11986059  1
  Se  Se6  1  0.70162537  0.11368200  0.83816041  1
