# generated using pymatgen
data_TlCl3
_symmetry_space_group_name_H-M   'P 1'
_cell_length_a   6.98054638
_cell_length_b   6.76848344
_cell_length_c   6.78205052
_cell_angle_alpha   60.18358097
_cell_angle_beta   93.55457835
_cell_angle_gamma   87.20371883
_symmetry_Int_Tables_number   1
_chemical_formula_structural   TlCl3
_chemical_formula_sum   'Tl2 Cl6'
_cell_volume   276.30794965
_cell_formula_units_Z   2
loop_
 _symmetry_equiv_pos_site_id
 _symmetry_equiv_pos_as_xyz
  1  'x, y, z'
loop_
 _atom_site_type_symbol
 _atom_site_label
 _atom_site_symmetry_multiplicity
 _atom_site_fract_x
 _atom_site_fract_y
 _atom_site_fract_z
 _atom_site_occupancy
  Tl  Tl0  1  0.06386018  0.13673684  0.71238272  1
  Tl  Tl1  1  0.06347087  0.80304393  0.37783919  1
  Cl  Cl2  1  0.27989948  0.08629234  0.43115896  1
  Cl  Cl3  1  0.84736076  0.85226926  0.65931487  1
  Cl  Cl4  1  0.84701389  0.49260978  0.38012221  1
  Cl  Cl5  1  0.28394651  0.44701656  0.70593276  1
  Cl  Cl6  1  0.28125751  0.80854066  0.07009303  1
  Cl  Cl7  1  0.84632080  0.13350064  0.01910626  1
