# generated using pymatgen
data_TlTe2H
_symmetry_space_group_name_H-M   'P 1'
_cell_length_a   6.63604732
_cell_length_b   9.98196898
_cell_length_c   8.90290541
_cell_angle_alpha   40.41014520
_cell_angle_beta   31.40332068
_cell_angle_gamma   24.42633504
_symmetry_Int_Tables_number   1
_chemical_formula_structural   TlTe2H
_chemical_formula_sum   'Tl1 Te2 H1'
_cell_volume   126.73246860
_cell_formula_units_Z   1
loop_
 _symmetry_equiv_pos_site_id
 _symmetry_equiv_pos_as_xyz
  1  'x, y, z'
loop_
 _atom_site_type_symbol
 _atom_site_label
 _atom_site_symmetry_multiplicity
 _atom_site_fract_x
 _atom_site_fract_y
 _atom_site_fract_z
 _atom_site_occupancy
  Tl  Tl0  1  0.39538786  0.20973697  0.83880164  1
  Te  Te1  1  0.13447480  0.80363448  0.37444826  1
  Te  Te2  1  0.27082562  0.36367725  0.24558540  1
  H  H3  1  -0.27064828  0.14233130  -0.00848531  1
