# generated using pymatgen
data_Tm2TeS2
_symmetry_space_group_name_H-M   'P 1'
_cell_length_a   8.76602134
_cell_length_b   10.42538597
_cell_length_c   7.42616386
_cell_angle_alpha   151.30384461
_cell_angle_beta   150.40517777
_cell_angle_gamma   40.69924224
_symmetry_Int_Tables_number   1
_chemical_formula_structural   Tm2TeS2
_chemical_formula_sum   'Tm2 Te1 S2'
_cell_volume   160.90681760
_cell_formula_units_Z   1
loop_
 _symmetry_equiv_pos_site_id
 _symmetry_equiv_pos_as_xyz
  1  'x, y, z'
loop_
 _atom_site_type_symbol
 _atom_site_label
 _atom_site_symmetry_multiplicity
 _atom_site_fract_x
 _atom_site_fract_y
 _atom_site_fract_z
 _atom_site_occupancy
  Tm  Tm0  1  0.79746416  0.17990520  0.35253367  1
  Tm  Tm1  1  0.31897195  0.81803766  0.81024085  1
  Te  Te2  1  -0.15469421  -0.03627265  -0.22372787  1
  S  S3  1  0.79656560  0.70480882  -0.06869302  1
  S  S4  1  0.31087250  0.27822097  0.17577637  1
