# generated using pymatgen
data_TmAsSe
_symmetry_space_group_name_H-M   'P 1'
_cell_length_a   3.78125308
_cell_length_b   3.76180696
_cell_length_c   12.33218889
_cell_angle_alpha   79.04505680
_cell_angle_beta   110.25368677
_cell_angle_gamma   89.94940144
_symmetry_Int_Tables_number   1
_chemical_formula_structural   TmAsSe
_chemical_formula_sum   'Tm2 As2 Se2'
_cell_volume   161.14827938
_cell_formula_units_Z   2
loop_
 _symmetry_equiv_pos_site_id
 _symmetry_equiv_pos_as_xyz
  1  'x, y, z'
loop_
 _atom_site_type_symbol
 _atom_site_label
 _atom_site_symmetry_multiplicity
 _atom_site_fract_x
 _atom_site_fract_y
 _atom_site_fract_z
 _atom_site_occupancy
  Tm  Tm0  1  0.70051565  0.25023350  0.79555338  1
  Tm  Tm1  1  0.18480158  0.97882083  0.22581932  1
  As  As2  1  0.45312025  0.11502640  0.01078063  1
  As  As3  1  0.90706128  0.61466616  0.01076902  1
  Se  Se4  1  0.78581095  0.42323535  0.31547262  1
  Se  Se5  1  0.09911029  -0.19444223  0.70542503  1
