# generated using pymatgen
data_TmLu3
_symmetry_space_group_name_H-M   'P 1'
_cell_length_a   7.06470813
_cell_length_b   6.53029964
_cell_length_c   6.10128199
_cell_angle_alpha   62.12957784
_cell_angle_beta   90.05465096
_cell_angle_gamma   105.66240290
_symmetry_Int_Tables_number   1
_chemical_formula_structural   TmLu3
_chemical_formula_sum   'Tm2 Lu6'
_cell_volume   236.98345397
_cell_formula_units_Z   2
loop_
 _symmetry_equiv_pos_site_id
 _symmetry_equiv_pos_as_xyz
  1  'x, y, z'
loop_
 _atom_site_type_symbol
 _atom_site_label
 _atom_site_symmetry_multiplicity
 _atom_site_fract_x
 _atom_site_fract_y
 _atom_site_fract_z
 _atom_site_occupancy
  Tm  Tm0  1  0.27264203  0.78862329  0.70481625  1
  Tm  Tm1  1  0.64748552  0.28794336  0.28946013  1
  Lu  Lu2  1  0.14771964  0.29035573  0.28896745  1
  Lu  Lu3  1  0.52302990  0.78762349  0.20611655  1
  Lu  Lu4  1  0.02271781  0.78987661  0.20497160  1
  Lu  Lu5  1  0.77262788  0.78807543  0.70587970  1
  Lu  Lu6  1  0.39736134  0.28817799  0.79001774  1
  Lu  Lu7  1  0.89752588  0.28872409  0.78883058  1
