# generated using pymatgen
data_U3Ge
_symmetry_space_group_name_H-M   'P 1'
_cell_length_a   3.57142572
_cell_length_b   4.90793057
_cell_length_c   4.74364482
_cell_angle_alpha   100.13177563
_cell_angle_beta   91.86817691
_cell_angle_gamma   91.78113804
_symmetry_Int_Tables_number   1
_chemical_formula_structural   U3Ge
_chemical_formula_sum   'U3 Ge1'
_cell_volume   81.75064353
_cell_formula_units_Z   1
loop_
 _symmetry_equiv_pos_site_id
 _symmetry_equiv_pos_as_xyz
  1  'x, y, z'
loop_
 _atom_site_type_symbol
 _atom_site_label
 _atom_site_symmetry_multiplicity
 _atom_site_fract_x
 _atom_site_fract_y
 _atom_site_fract_z
 _atom_site_occupancy
  U  U0  1  0.06803981  0.58967743  0.47843442  1
  U  U1  1  0.47054797  0.04480104  0.54256766  1
  U  U2  1  0.40546298  0.49486514  -0.04592988  1
  Ge  Ge3  1  -0.05540077  -0.00040360  0.04449779  1
