# generated using pymatgen
data_V2MoRu
_symmetry_space_group_name_H-M   'P 1'
_cell_length_a   3.02577117
_cell_length_b   4.98793923
_cell_length_c   4.99558828
_cell_angle_alpha   52.48462856
_cell_angle_beta   72.49755453
_cell_angle_gamma   72.45626172
_symmetry_Int_Tables_number   1
_chemical_formula_structural   V2MoRu
_chemical_formula_sum   'V2 Mo1 Ru1'
_cell_volume   56.33254404
_cell_formula_units_Z   1
loop_
 _symmetry_equiv_pos_site_id
 _symmetry_equiv_pos_as_xyz
  1  'x, y, z'
loop_
 _atom_site_type_symbol
 _atom_site_label
 _atom_site_symmetry_multiplicity
 _atom_site_fract_x
 _atom_site_fract_y
 _atom_site_fract_z
 _atom_site_occupancy
  V  V0  1  0.02999141  0.05633823  -0.03077952  1
  V  V1  1  0.53415839  0.55287029  0.46593402  1
  Mo  Mo2  1  0.28158561  0.30475256  0.21724623  1
  Ru  Ru3  1  0.78063459  0.80490892  0.71720927  1
