# generated using pymatgen
data_VH2Ir
_symmetry_space_group_name_H-M   'P 1'
_cell_length_a   2.81638205
_cell_length_b   4.89517624
_cell_length_c   2.81638439
_cell_angle_alpha   73.48294923
_cell_angle_beta   60.03731514
_cell_angle_gamma   73.45738584
_symmetry_Int_Tables_number   1
_chemical_formula_structural   VH2Ir
_chemical_formula_sum   'V1 H2 Ir1'
_cell_volume   31.77128971
_cell_formula_units_Z   1
loop_
 _symmetry_equiv_pos_site_id
 _symmetry_equiv_pos_as_xyz
  1  'x, y, z'
loop_
 _atom_site_type_symbol
 _atom_site_label
 _atom_site_symmetry_multiplicity
 _atom_site_fract_x
 _atom_site_fract_y
 _atom_site_fract_z
 _atom_site_occupancy
  V  V0  1  0.02432314  -0.06807143  -0.00908593  1
  H  H1  1  0.29638364  0.11959675  0.26256982  1
  H  H2  1  0.75266749  0.74529164  0.71793358  1
  Ir  Ir3  1  0.52522573  0.43160304  0.49106253  1
