# generated using pymatgen
data_VRh
_symmetry_space_group_name_H-M   'P 1'
_cell_length_a   5.45781266
_cell_length_b   4.58546091
_cell_length_c   2.78527163
_cell_angle_alpha   90.13248765
_cell_angle_beta   75.36124996
_cell_angle_gamma   56.15483185
_symmetry_Int_Tables_number   1
_chemical_formula_structural   VRh
_chemical_formula_sum   'V2 Rh2'
_cell_volume   55.11967124
_cell_formula_units_Z   2
loop_
 _symmetry_equiv_pos_site_id
 _symmetry_equiv_pos_as_xyz
  1  'x, y, z'
loop_
 _atom_site_type_symbol
 _atom_site_label
 _atom_site_symmetry_multiplicity
 _atom_site_fract_x
 _atom_site_fract_y
 _atom_site_fract_z
 _atom_site_occupancy
  V  V0  1  0.25534334  0.60330953  -0.12477679  1
  V  V1  1  0.69007802  0.51158309  0.15832599  1
  Rh  Rh2  1  0.19116598  0.15900510  0.40768306  1
  Rh  Rh3  1  0.75355265  0.95585227  0.62605775  1
