# generated using pymatgen
data_VSe2
_symmetry_space_group_name_H-M   'P 1'
_cell_length_a   3.33643314
_cell_length_b   3.32762549
_cell_length_c   6.93969622
_cell_angle_alpha   78.91131641
_cell_angle_beta   89.91598198
_cell_angle_gamma   120.06122470
_symmetry_Int_Tables_number   1
_chemical_formula_structural   VSe2
_chemical_formula_sum   'V1 Se2'
_cell_volume   65.00340057
_cell_formula_units_Z   1
loop_
 _symmetry_equiv_pos_site_id
 _symmetry_equiv_pos_as_xyz
  1  'x, y, z'
loop_
 _atom_site_type_symbol
 _atom_site_label
 _atom_site_symmetry_multiplicity
 _atom_site_fract_x
 _atom_site_fract_y
 _atom_site_fract_z
 _atom_site_occupancy
  V  V0  1  -0.00182457  -0.00018223  -0.01655665  1
  Se  Se1  1  0.72792762  0.45795156  0.74967410  1
  Se  Se2  1  0.26880695  0.54080067  0.21682255  1
