# generated using pymatgen
data_Y3GaC
_symmetry_space_group_name_H-M   'P 1'
_cell_length_a   6.64357579
_cell_length_b   4.09391835
_cell_length_c   5.05183298
_cell_angle_alpha   90.04725863
_cell_angle_beta   112.28440339
_cell_angle_gamma   107.85573206
_symmetry_Int_Tables_number   1
_chemical_formula_structural   Y3GaC
_chemical_formula_sum   'Y3 Ga1 C1'
_cell_volume   119.94057132
_cell_formula_units_Z   1
loop_
 _symmetry_equiv_pos_site_id
 _symmetry_equiv_pos_as_xyz
  1  'x, y, z'
loop_
 _atom_site_type_symbol
 _atom_site_label
 _atom_site_symmetry_multiplicity
 _atom_site_fract_x
 _atom_site_fract_y
 _atom_site_fract_z
 _atom_site_occupancy
  Y  Y0  1  0.55380384  0.12582503  0.64321302  1
  Y  Y1  1  0.37807739  0.53849947  0.05563850  1
  Y  Y2  1  -0.02537861  0.32637170  0.35325487  1
  Ga  Ga3  1  -0.04365470  -0.17708594  -0.15620652  1
  C  C4  1  0.35769208  0.52791974  0.54999014  1
