# generated using pymatgen
data_Y3PbC
_symmetry_space_group_name_H-M   'P 1'
_cell_length_a   4.94230458
_cell_length_b   6.77897676
_cell_length_c   3.64158972
_cell_angle_alpha   82.39567697
_cell_angle_beta   90.01612007
_cell_angle_gamma   89.89911049
_symmetry_Int_Tables_number   1
_chemical_formula_structural   Y3PbC
_chemical_formula_sum   'Y3 Pb1 C1'
_cell_volume   120.93378968
_cell_formula_units_Z   1
loop_
 _symmetry_equiv_pos_site_id
 _symmetry_equiv_pos_as_xyz
  1  'x, y, z'
loop_
 _atom_site_type_symbol
 _atom_site_label
 _atom_site_symmetry_multiplicity
 _atom_site_fract_x
 _atom_site_fract_y
 _atom_site_fract_z
 _atom_site_occupancy
  Y  Y0  1  0.23161338  0.12643614  0.62235200  1
  Y  Y1  1  0.23027813  0.61604417  0.50123903  1
  Y  Y2  1  0.73097378  0.37263138  0.06167697  1
  Pb  Pb3  1  -0.26950762  -0.12663175  0.06919747  1
  C  C4  1  0.23074233  0.37171006  0.06162452  1
