# generated using pymatgen
data_YBi2ClO4
_symmetry_space_group_name_H-M   'P 1'
_cell_length_a   3.72129184
_cell_length_b   3.99387141
_cell_length_c   10.02270859
_cell_angle_alpha   102.17815697
_cell_angle_beta   90.13559057
_cell_angle_gamma   89.96017573
_symmetry_Int_Tables_number   1
_chemical_formula_structural   YBi2ClO4
_chemical_formula_sum   'Y1 Bi2 Cl1 O4'
_cell_volume   145.60854010
_cell_formula_units_Z   1
loop_
 _symmetry_equiv_pos_site_id
 _symmetry_equiv_pos_as_xyz
  1  'x, y, z'
loop_
 _atom_site_type_symbol
 _atom_site_label
 _atom_site_symmetry_multiplicity
 _atom_site_fract_x
 _atom_site_fract_y
 _atom_site_fract_z
 _atom_site_occupancy
  Y  Y0  1  0.01826488  -0.07589272  -0.03878426  1
  Bi  Bi1  1  0.52037692  0.57092521  0.21192598  1
  Bi  Bi2  1  0.51730858  0.64247394  0.65572114  1
  Cl  Cl3  1  0.01894220  0.19272210  0.40104332  1
  O  O4  1  0.01912799  0.49730311  0.08142187  1
  O  O5  1  0.51816907  -0.39435060  0.85894172  1
  O  O6  1  0.51888539  0.02237708  0.10365886  1
  O  O7  1  0.01755497  0.94767188  0.71849137  1
