# generated using pymatgen
data_YMg2H
_symmetry_space_group_name_H-M   'P 1'
_cell_length_a   3.56473006
_cell_length_b   5.87800476
_cell_length_c   4.91589436
_cell_angle_alpha   66.47015518
_cell_angle_beta   89.33654955
_cell_angle_gamma   54.25380622
_symmetry_Int_Tables_number   1
_chemical_formula_structural   YMg2H
_chemical_formula_sum   'Y1 Mg2 H1'
_cell_volume   73.16997804
_cell_formula_units_Z   1
loop_
 _symmetry_equiv_pos_site_id
 _symmetry_equiv_pos_as_xyz
  1  'x, y, z'
loop_
 _atom_site_type_symbol
 _atom_site_label
 _atom_site_symmetry_multiplicity
 _atom_site_fract_x
 _atom_site_fract_y
 _atom_site_fract_z
 _atom_site_occupancy
  Y  Y0  1  0.77115907  0.71243720  0.75084594  1
  Mg  Mg1  1  0.60461711  0.37982317  0.42025115  1
  Mg  Mg2  1  -0.06506673  0.04637124  0.08192324  1
  H  H3  1  0.27588054  0.21120839  0.24684967  1
