# generated using pymatgen
data_YUS2
_symmetry_space_group_name_H-M   'P 1'
_cell_length_a   5.22950498
_cell_length_b   5.23179227
_cell_length_c   6.48835498
_cell_angle_alpha   51.68477263
_cell_angle_beta   51.67451733
_cell_angle_gamma   40.96412174
_symmetry_Int_Tables_number   1
_chemical_formula_structural   YUS2
_chemical_formula_sum   'Y1 U1 S2'
_cell_volume   87.23675681
_cell_formula_units_Z   1
loop_
 _symmetry_equiv_pos_site_id
 _symmetry_equiv_pos_as_xyz
  1  'x, y, z'
loop_
 _atom_site_type_symbol
 _atom_site_label
 _atom_site_symmetry_multiplicity
 _atom_site_fract_x
 _atom_site_fract_y
 _atom_site_fract_z
 _atom_site_occupancy
  Y  Y0  1  -0.04183401  -0.03217132  0.06855785  1
  U  U1  1  0.45799964  0.46725773  0.57238715  1
  S  S2  1  0.20716198  0.21642007  0.14963461  1
  S  S3  1  0.70919238  0.71881351  0.64704040  1
