# generated using pymatgen
data_YZnCuP2
_symmetry_space_group_name_H-M   'P 1'
_cell_length_a   6.63308341
_cell_length_b   3.92718612
_cell_length_c   6.20252794
_cell_angle_alpha   91.21903134
_cell_angle_beta   128.48630879
_cell_angle_gamma   124.19622414
_symmetry_Int_Tables_number   1
_chemical_formula_structural   YZnCuP2
_chemical_formula_sum   'Y1 Zn1 Cu1 P2'
_cell_volume   85.72403914
_cell_formula_units_Z   1
loop_
 _symmetry_equiv_pos_site_id
 _symmetry_equiv_pos_as_xyz
  1  'x, y, z'
loop_
 _atom_site_type_symbol
 _atom_site_label
 _atom_site_symmetry_multiplicity
 _atom_site_fract_x
 _atom_site_fract_y
 _atom_site_fract_z
 _atom_site_occupancy
  Y  Y0  1  0.37442036  0.85408858  0.98481835  1
  Zn  Zn1  1  -0.15480590  -0.16301149  -0.01040999  1
  Cu  Cu2  1  0.54715020  0.04049096  0.60418613  1
  P  P3  1  0.55308396  0.53966889  0.42161137  1
  P  P4  1  0.01671138  -0.01291695  0.47874414  1
