# generated using pymatgen
data_Zn3Ru
_symmetry_space_group_name_H-M   'P 1'
_cell_length_a   2.80339066
_cell_length_b   4.64121414
_cell_length_c   9.44246148
_cell_angle_alpha   111.38249319
_cell_angle_beta   90.24078169
_cell_angle_gamma   89.97408775
_symmetry_Int_Tables_number   1
_chemical_formula_structural   Zn3Ru
_chemical_formula_sum   'Zn6 Ru2'
_cell_volume   114.39947246
_cell_formula_units_Z   2
loop_
 _symmetry_equiv_pos_site_id
 _symmetry_equiv_pos_as_xyz
  1  'x, y, z'
loop_
 _atom_site_type_symbol
 _atom_site_label
 _atom_site_symmetry_multiplicity
 _atom_site_fract_x
 _atom_site_fract_y
 _atom_site_fract_z
 _atom_site_occupancy
  Zn  Zn0  1  0.38580145  0.79994761  0.26183172  1
  Zn  Zn1  1  0.38503564  0.44734188  0.75285545  1
  Zn  Zn2  1  0.38774749  -0.03736400  0.00187540  1
  Zn  Zn3  1  -0.11236011  0.46453805  0.00866486  1
  Zn  Zn4  1  0.88476428  0.29596531  0.26435672  1
  Zn  Zn5  1  0.38200801  0.61875033  0.51666844  1
  Ru  Ru6  1  0.88438386  0.96254596  0.76175879  1
  Ru  Ru7  1  -0.11664062  0.10835486  0.50760862  1
