# generated using pymatgen
data_ZnGeRh2
_symmetry_space_group_name_H-M   'P 1'
_cell_length_a   4.83216369
_cell_length_b   2.98998148
_cell_length_c   4.82715170
_cell_angle_alpha   71.84188721
_cell_angle_beta   64.55133760
_cell_angle_gamma   71.69388656
_symmetry_Int_Tables_number   1
_chemical_formula_structural   ZnGeRh2
_chemical_formula_sum   'Zn1 Ge1 Rh2'
_cell_volume   58.50540300
_cell_formula_units_Z   1
loop_
 _symmetry_equiv_pos_site_id
 _symmetry_equiv_pos_as_xyz
  1  'x, y, z'
loop_
 _atom_site_type_symbol
 _atom_site_label
 _atom_site_symmetry_multiplicity
 _atom_site_fract_x
 _atom_site_fract_y
 _atom_site_fract_z
 _atom_site_occupancy
  Zn  Zn0  1  0.05187052  0.02075949  -0.08596788  1
  Ge  Ge1  1  0.58271927  0.52302126  0.38108239  1
  Rh  Rh2  1  0.16427955  0.25958059  0.32798262  1
  Rh  Rh3  1  0.63815066  0.78753866  0.79929287  1
