# generated using pymatgen
data_ZnHPd2
_symmetry_space_group_name_H-M   'P 1'
_cell_length_a   4.47717269
_cell_length_b   4.65142851
_cell_length_c   4.69198181
_cell_angle_alpha   59.78820030
_cell_angle_beta   58.78033134
_cell_angle_gamma   36.13003229
_symmetry_Int_Tables_number   1
_chemical_formula_structural   ZnHPd2
_chemical_formula_sum   'Zn1 H1 Pd2'
_cell_volume   48.57188108
_cell_formula_units_Z   1
loop_
 _symmetry_equiv_pos_site_id
 _symmetry_equiv_pos_as_xyz
  1  'x, y, z'
loop_
 _atom_site_type_symbol
 _atom_site_label
 _atom_site_symmetry_multiplicity
 _atom_site_fract_x
 _atom_site_fract_y
 _atom_site_fract_z
 _atom_site_occupancy
  Zn  Zn0  1  0.52464075  0.48061917  0.54068247  1
  H  H1  1  0.00104662  0.04504004  0.01731860  1
  Pd  Pd2  1  0.68537891  0.69435089  0.85379902  1
  Pd  Pd3  1  0.36893372  0.25974990  0.22977991  1
