# generated using pymatgen
data_ZnTe
_symmetry_space_group_name_H-M   'P 1'
_cell_length_a   4.31074373
_cell_length_b   4.31635406
_cell_length_c   11.85949919
_cell_angle_alpha   70.36083200
_cell_angle_beta   109.64653561
_cell_angle_gamma   118.53473107
_symmetry_Int_Tables_number   1
_chemical_formula_structural   ZnTe
_chemical_formula_sum   'Zn3 Te3'
_cell_volume   178.42164161
_cell_formula_units_Z   3
loop_
 _symmetry_equiv_pos_site_id
 _symmetry_equiv_pos_as_xyz
  1  'x, y, z'
loop_
 _atom_site_type_symbol
 _atom_site_label
 _atom_site_symmetry_multiplicity
 _atom_site_fract_x
 _atom_site_fract_y
 _atom_site_fract_z
 _atom_site_occupancy
  Zn  Zn0  1  0.65124345  0.70493829  0.56134788  1
  Zn  Zn1  1  0.09166772  0.26635897  0.37778530  1
  Zn  Zn2  1  0.52612686  0.82692581  0.02815432  1
  Te  Te3  1  0.70134721  0.65756025  0.29356382  1
  Te  Te4  1  0.35867685  -0.00080618  0.63402900  1
  Te  Te5  1  0.81818792  0.53358286  -0.04297032  1
