# generated using pymatgen
data_Zr3O
_symmetry_space_group_name_H-M   'P 1'
_cell_length_a   8.57628542
_cell_length_b   5.69791841
_cell_length_c   4.44757945
_cell_angle_alpha   67.08567382
_cell_angle_beta   58.53854725
_cell_angle_gamma   88.45896931
_symmetry_Int_Tables_number   1
_chemical_formula_structural   Zr3O
_chemical_formula_sum   'Zr6 O2'
_cell_volume   166.40399175
_cell_formula_units_Z   2
loop_
 _symmetry_equiv_pos_site_id
 _symmetry_equiv_pos_as_xyz
  1  'x, y, z'
loop_
 _atom_site_type_symbol
 _atom_site_label
 _atom_site_symmetry_multiplicity
 _atom_site_fract_x
 _atom_site_fract_y
 _atom_site_fract_z
 _atom_site_occupancy
  Zr  Zr0  1  0.46378523  0.02248301  0.08275294  1
  Zr  Zr1  1  0.34683381  0.56718765  0.93284157  1
  Zr  Zr2  1  0.90018345  0.25978762  0.55227140  1
  Zr  Zr3  1  0.18947268  0.14273535  0.79318950  1
  Zr  Zr4  1  0.61797293  0.42622563  0.22957863  1
  Zr  Zr5  1  0.07044344  0.69275832  0.65989336  1
  O  O6  1  -0.05237837  -0.05610346  -0.11952013  1
  O  O7  1  0.35477684  0.58199588  0.41681274  1
