# generated using pymatgen
data_ZrCuSiAs
_symmetry_space_group_name_H-M   'P 1'
_cell_length_a   3.56235978
_cell_length_b   3.53921806
_cell_length_c   11.33065906
_cell_angle_alpha   91.40646434
_cell_angle_beta   90.10291324
_cell_angle_gamma   90.02137278
_symmetry_Int_Tables_number   1
_chemical_formula_structural   ZrCuSiAs
_chemical_formula_sum   'Zr2 Cu2 Si2 As2'
_cell_volume   142.81330577
_cell_formula_units_Z   2
loop_
 _symmetry_equiv_pos_site_id
 _symmetry_equiv_pos_as_xyz
  1  'x, y, z'
loop_
 _atom_site_type_symbol
 _atom_site_label
 _atom_site_symmetry_multiplicity
 _atom_site_fract_x
 _atom_site_fract_y
 _atom_site_fract_z
 _atom_site_occupancy
  Zr  Zr0  1  0.05153740  0.41440325  0.81969746  1
  Zr  Zr1  1  0.55248346  -0.05984199  0.20347148  1
  Cu  Cu2  1  0.05107995  -0.10656997  0.58152704  1
  Cu  Cu3  1  0.05229054  0.43324590  0.35329816  1
  Si  Si4  1  0.55207113  0.42850338  0.01304321  1
  Si  Si5  1  0.05194667  -0.07110102  0.01362825  1
  As  As6  1  0.55071547  0.91538757  0.43901367  1
  As  As7  1  0.55128539  -0.09350711  0.72923074  1
