# generated using pymatgen
data_ZrGeSe
_symmetry_space_group_name_H-M   'P 1'
_cell_length_a   3.63656564
_cell_length_b   3.63583862
_cell_length_c   12.08197651
_cell_angle_alpha   84.34683719
_cell_angle_beta   85.90568867
_cell_angle_gamma   89.99755096
_symmetry_Int_Tables_number   1
_chemical_formula_structural   ZrGeSe
_chemical_formula_sum   'Zr2 Ge2 Se2'
_cell_volume   158.56089214
_cell_formula_units_Z   2
loop_
 _symmetry_equiv_pos_site_id
 _symmetry_equiv_pos_as_xyz
  1  'x, y, z'
loop_
 _atom_site_type_symbol
 _atom_site_label
 _atom_site_symmetry_multiplicity
 _atom_site_fract_x
 _atom_site_fract_y
 _atom_site_fract_z
 _atom_site_occupancy
  Zr  Zr0  1  0.81452072  0.78151364  0.78075324  1
  Zr  Zr1  1  0.22819500  0.16033521  0.14793728  1
  Ge  Ge2  1  0.77135758  0.22073065  -0.03601330  1
  Ge  Ge3  1  0.27100713  0.72059351  -0.03531792  1
  Se  Se4  1  0.33599120  0.31176561  0.68782386  1
  Se  Se5  1  0.70623837  0.62968139  0.24102684  1
