# generated using pymatgen
data_ZrMnRh2
_symmetry_space_group_name_H-M   'P 1'
_cell_length_a   4.72804523
_cell_length_b   3.96259493
_cell_length_c   4.73530451
_cell_angle_alpha   65.10783210
_cell_angle_beta   49.62410014
_cell_angle_gamma   65.06115811
_symmetry_Int_Tables_number   1
_chemical_formula_structural   ZrMnRh2
_chemical_formula_sum   'Zr1 Mn1 Rh2'
_cell_volume   59.86555295
_cell_formula_units_Z   1
loop_
 _symmetry_equiv_pos_site_id
 _symmetry_equiv_pos_as_xyz
  1  'x, y, z'
loop_
 _atom_site_type_symbol
 _atom_site_label
 _atom_site_symmetry_multiplicity
 _atom_site_fract_x
 _atom_site_fract_y
 _atom_site_fract_z
 _atom_site_occupancy
  Zr  Zr0  1  0.00413671  0.01646767  -0.01062133  1
  Mn  Mn1  1  0.50300367  0.51591849  0.48986303  1
  Rh  Rh2  1  0.25576450  0.26711960  0.23802562  1
  Rh  Rh3  1  0.75566513  0.76841425  0.73754268  1
