# generated using pymatgen
data_AgAuF
_symmetry_space_group_name_H-M   'P 1'
_cell_length_a   2.94943587
_cell_length_b   2.91759486
_cell_length_c   5.77910639
_cell_angle_alpha   89.99999980
_cell_angle_beta   90.00000029
_cell_angle_gamma   90.00000000
_symmetry_Int_Tables_number   1
_chemical_formula_structural   AgAuF
_chemical_formula_sum   'Ag1 Au1 F1'
_cell_volume   49.73070689
_cell_formula_units_Z   1
loop_
 _symmetry_equiv_pos_site_id
 _symmetry_equiv_pos_as_xyz
  1  'x, y, z'
loop_
 _atom_site_type_symbol
 _atom_site_label
 _atom_site_symmetry_multiplicity
 _atom_site_fract_x
 _atom_site_fract_y
 _atom_site_fract_z
 _atom_site_occupancy
  Ag  Ag0  1  0.50000000  0.50000000  -0.07004997  1
  Au  Au1  1  -0.00000001  -0.00000000  0.58528149  1
  F  F2  1  0.00000001  0.50000000  0.23906847  1
