# generated using pymatgen
data_AgBr2
_symmetry_space_group_name_H-M   P-1
_cell_length_a   3.15376803
_cell_length_b   4.36401603
_cell_length_c   8.73808366
_cell_angle_alpha   97.31948496
_cell_angle_beta   93.48755795
_cell_angle_gamma   110.79364975
_symmetry_Int_Tables_number   2
_chemical_formula_structural   AgBr2
_chemical_formula_sum   'Ag1 Br2'
_cell_volume   110.78169185
_cell_formula_units_Z   1
loop_
 _symmetry_equiv_pos_site_id
 _symmetry_equiv_pos_as_xyz
  1  'x, y, z'
  2  '-x, -y, -z'
loop_
 _atom_site_type_symbol
 _atom_site_label
 _atom_site_symmetry_multiplicity
 _atom_site_fract_x
 _atom_site_fract_y
 _atom_site_fract_z
 _atom_site_occupancy
  Ag  Ag0  1  0.50000000  0.50000000  0.00000000  1
  Br  Br1  2  0.09162234  0.74536260  0.79414554  1
