# generated using pymatgen
data_AgPCl2
_symmetry_space_group_name_H-M   'P 1'
_cell_length_a   5.63801384
_cell_length_b   5.16167070
_cell_length_c   5.72389766
_cell_angle_alpha   89.09438129
_cell_angle_beta   116.15768192
_cell_angle_gamma   72.01891048
_symmetry_Int_Tables_number   1
_chemical_formula_structural   AgPCl2
_chemical_formula_sum   'Ag1 P1 Cl2'
_cell_volume   139.94314197
_cell_formula_units_Z   1
loop_
 _symmetry_equiv_pos_site_id
 _symmetry_equiv_pos_as_xyz
  1  'x, y, z'
loop_
 _atom_site_type_symbol
 _atom_site_label
 _atom_site_symmetry_multiplicity
 _atom_site_fract_x
 _atom_site_fract_y
 _atom_site_fract_z
 _atom_site_occupancy
  Ag  Ag0  1  0.54876391  0.33421452  0.80874887  1
  P  P1  1  0.00764650  0.12986738  -0.14845187  1
  Cl  Cl2  1  0.07740811  0.51357383  0.78339435  1
  Cl  Cl3  1  0.25718147  0.02234427  0.26400865  1
