# generated using pymatgen
data_AgPF
_symmetry_space_group_name_H-M   'P 1'
_cell_length_a   2.74920466
_cell_length_b   2.76168324
_cell_length_c   5.91864643
_cell_angle_alpha   90.00167630
_cell_angle_beta   89.96544253
_cell_angle_gamma   89.98959010
_symmetry_Int_Tables_number   1
_chemical_formula_structural   AgPF
_chemical_formula_sum   'Ag1 P1 F1'
_cell_volume   44.93691422
_cell_formula_units_Z   1
loop_
 _symmetry_equiv_pos_site_id
 _symmetry_equiv_pos_as_xyz
  1  'x, y, z'
loop_
 _atom_site_type_symbol
 _atom_site_label
 _atom_site_symmetry_multiplicity
 _atom_site_fract_x
 _atom_site_fract_y
 _atom_site_fract_z
 _atom_site_occupancy
  Ag  Ag0  1  0.50011300  0.50000352  -0.06797027  1
  P  P1  1  -0.00009271  -0.00000843  0.57758921  1
  F  F2  1  -0.00002029  0.50000491  0.26068106  1
