# generated using pymatgen
data_AgSe3
_symmetry_space_group_name_H-M   P1
_cell_length_a   4.55025789
_cell_length_b   5.19634409
_cell_length_c   6.23786988
_cell_angle_alpha   73.44862462
_cell_angle_beta   89.57344120
_cell_angle_gamma   74.19232619
_symmetry_Int_Tables_number   1
_chemical_formula_structural   AgSe3
_chemical_formula_sum   'Ag1 Se3'
_cell_volume   135.64023964
_cell_formula_units_Z   1
loop_
 _symmetry_equiv_pos_site_id
 _symmetry_equiv_pos_as_xyz
  1  'x, y, z'
loop_
 _atom_site_type_symbol
 _atom_site_label
 _atom_site_symmetry_multiplicity
 _atom_site_fract_x
 _atom_site_fract_y
 _atom_site_fract_z
 _atom_site_occupancy
  Ag  Ag0  1  0.56077386  0.71045365  0.78723480  1
  Se  Se1  1  0.07983304  0.19366594  0.27265328  1
  Se  Se2  1  0.13724660  0.44589662  0.89057990  1
  Se  Se3  1  0.40434649  0.22848379  0.54543201  1
