# generated using pymatgen
data_AlAg2Te3
_symmetry_space_group_name_H-M   Amm2
_cell_length_a   5.78024806
_cell_length_b   9.69324104
_cell_length_c   6.29278472
_cell_angle_alpha   90.00000000
_cell_angle_beta   90.00000000
_cell_angle_gamma   90.00000000
_symmetry_Int_Tables_number   38
_chemical_formula_structural   AlAg2Te3
_chemical_formula_sum   'Al2 Ag4 Te6'
_cell_volume   352.58056013
_cell_formula_units_Z   2
loop_
 _symmetry_equiv_pos_site_id
 _symmetry_equiv_pos_as_xyz
  1  'x, y, z'
  2  '-x, -y, z'
  3  '-x, y, z'
  4  'x, -y, z'
  5  'x, y+1/2, z+1/2'
  6  '-x, -y+1/2, z+1/2'
  7  '-x, y+1/2, z+1/2'
  8  'x, -y+1/2, z+1/2'
loop_
 _atom_site_type_symbol
 _atom_site_label
 _atom_site_symmetry_multiplicity
 _atom_site_fract_x
 _atom_site_fract_y
 _atom_site_fract_z
 _atom_site_occupancy
  Al  Al0  2  0.00000000  0.00000000  0.44708043  1
  Ag  Ag1  4  0.50000000  0.24300370  0.73102595  1
  Te  Te2  4  0.00000000  0.24630212  0.72359742  1
  Te  Te3  2  0.50000000  0.00000000  0.47129646  1
