# generated using pymatgen
data_AlCl4
_symmetry_space_group_name_H-M   Pm
_cell_length_a   7.47028482
_cell_length_b   3.03113980
_cell_length_c   8.90013685
_cell_angle_alpha   90.00000000
_cell_angle_beta   101.85272891
_cell_angle_gamma   90.00000000
_symmetry_Int_Tables_number   6
_chemical_formula_structural   AlCl4
_chemical_formula_sum   'Al1 Cl4'
_cell_volume   197.23318271
_cell_formula_units_Z   1
loop_
 _symmetry_equiv_pos_site_id
 _symmetry_equiv_pos_as_xyz
  1  'x, y, z'
  2  'x, -y, z'
loop_
 _atom_site_type_symbol
 _atom_site_label
 _atom_site_symmetry_multiplicity
 _atom_site_fract_x
 _atom_site_fract_y
 _atom_site_fract_z
 _atom_site_occupancy
  Al  Al0  1  0.19510319  0.50000000  0.32150689  1
  Cl  Cl1  1  0.02726279  0.00000000  0.43946080  1
  Cl  Cl2  1  0.12340112  0.00000000  0.11568832  1
  Cl  Cl3  1  0.43334473  0.00000000  0.40825122  1
  Cl  Cl4  1  0.64338818  0.50000000  0.84049277  1
