# generated using pymatgen
data_AlCl3
_symmetry_space_group_name_H-M   P1
_cell_length_a   4.97587391
_cell_length_b   6.57071765
_cell_length_c   6.94050296
_cell_angle_alpha   110.33490791
_cell_angle_beta   100.31306771
_cell_angle_gamma   108.69885413
_symmetry_Int_Tables_number   1
_chemical_formula_structural   AlCl3
_chemical_formula_sum   'Al1 Cl3'
_cell_volume   190.46668934
_cell_formula_units_Z   1
loop_
 _symmetry_equiv_pos_site_id
 _symmetry_equiv_pos_as_xyz
  1  'x, y, z'
loop_
 _atom_site_type_symbol
 _atom_site_label
 _atom_site_symmetry_multiplicity
 _atom_site_fract_x
 _atom_site_fract_y
 _atom_site_fract_z
 _atom_site_occupancy
  Al  Al0  1  0.84058501  0.99668714  0.04900883  1
  Cl  Cl1  1  0.19426649  0.26468836  0.32507331  1
  Cl  Cl2  1  0.49609646  0.73921604  0.07878596  1
  Cl  Cl3  1  0.82455205  0.99010846  0.74563190  1
