# generated using pymatgen
data_AlSeCl
_symmetry_space_group_name_H-M   Cm
_cell_length_a   6.64219152
_cell_length_b   3.82911172
_cell_length_c   7.02443746
_cell_angle_alpha   90.00000000
_cell_angle_beta   96.34501592
_cell_angle_gamma   90.00000000
_symmetry_Int_Tables_number   8
_chemical_formula_structural   AlSeCl
_chemical_formula_sum   'Al2 Se2 Cl2'
_cell_volume   177.56301066
_cell_formula_units_Z   2
loop_
 _symmetry_equiv_pos_site_id
 _symmetry_equiv_pos_as_xyz
  1  'x, y, z'
  2  'x, -y, z'
  3  'x+1/2, y+1/2, z'
  4  'x+1/2, -y+1/2, z'
loop_
 _atom_site_type_symbol
 _atom_site_label
 _atom_site_symmetry_multiplicity
 _atom_site_fract_x
 _atom_site_fract_y
 _atom_site_fract_z
 _atom_site_occupancy
  Al  Al0  2  0.30056306  0.50000000  0.70168940  1
  Se  Se1  2  0.11559179  0.00000000  0.54659592  1
  Cl  Cl2  2  0.33384971  0.50000000  0.00171468  1
