# generated using pymatgen
data_As2S5
_symmetry_space_group_name_H-M   P1
_cell_length_a   5.89010023
_cell_length_b   6.81804306
_cell_length_c   7.27194923
_cell_angle_alpha   82.05142205
_cell_angle_beta   78.19973799
_cell_angle_gamma   67.05404980
_symmetry_Int_Tables_number   1
_chemical_formula_structural   As2S5
_chemical_formula_sum   'As2 S5'
_cell_volume   262.68674682
_cell_formula_units_Z   1
loop_
 _symmetry_equiv_pos_site_id
 _symmetry_equiv_pos_as_xyz
  1  'x, y, z'
loop_
 _atom_site_type_symbol
 _atom_site_label
 _atom_site_symmetry_multiplicity
 _atom_site_fract_x
 _atom_site_fract_y
 _atom_site_fract_z
 _atom_site_occupancy
  As  As0  1  0.10989293  0.02821500  0.00619010  1
  As  As1  1  0.27400194  0.35100611  0.59025096  1
  S  S2  1  0.07535171  0.59391849  0.41290023  1
  S  S3  1  0.29548203  0.23973900  0.08042906  1
  S  S4  1  0.52298861  0.04366623  0.27358248  1
  S  S5  1  0.78274704  0.17841735  0.25094780  1
  S  S6  1  0.94543572  0.27303783  0.77519936  1
