# generated using pymatgen
data_AsAuCl2
_symmetry_space_group_name_H-M   Pm
_cell_length_a   7.73479750
_cell_length_b   3.59429357
_cell_length_c   10.04035807
_cell_angle_alpha   90.00000000
_cell_angle_beta   101.64229553
_cell_angle_gamma   90.00000000
_symmetry_Int_Tables_number   6
_chemical_formula_structural   AsAuCl2
_chemical_formula_sum   'As1 Au1 Cl2'
_cell_volume   273.39059310
_cell_formula_units_Z   1
loop_
 _symmetry_equiv_pos_site_id
 _symmetry_equiv_pos_as_xyz
  1  'x, y, z'
  2  'x, -y, z'
loop_
 _atom_site_type_symbol
 _atom_site_label
 _atom_site_symmetry_multiplicity
 _atom_site_fract_x
 _atom_site_fract_y
 _atom_site_fract_z
 _atom_site_occupancy
  As  As0  1  0.45679737  0.00000000  0.37198512  1
  Au  Au1  1  0.27431145  0.50000000  0.24157244  1
  Cl  Cl2  1  0.08709833  0.00000000  0.11763262  1
  Cl  Cl3  1  0.68179284  0.00000000  0.26880982  1
