# generated using pymatgen
data_AsCl3
_symmetry_space_group_name_H-M   P1
_cell_length_a   5.67849101
_cell_length_b   6.57238255
_cell_length_c   6.70863135
_cell_angle_alpha   114.35006017
_cell_angle_beta   95.76600982
_cell_angle_gamma   114.10673358
_symmetry_Int_Tables_number   1
_chemical_formula_structural   AsCl3
_chemical_formula_sum   'As1 Cl3'
_cell_volume   197.02524481
_cell_formula_units_Z   1
loop_
 _symmetry_equiv_pos_site_id
 _symmetry_equiv_pos_as_xyz
  1  'x, y, z'
loop_
 _atom_site_type_symbol
 _atom_site_label
 _atom_site_symmetry_multiplicity
 _atom_site_fract_x
 _atom_site_fract_y
 _atom_site_fract_z
 _atom_site_occupancy
  As  As0  1  0.45304480  0.09668164  0.84852992  1
  Cl  Cl1  1  0.06320597  0.01099466  0.92215569  1
  Cl  Cl2  1  0.37947342  0.18827873  0.57588942  1
  Cl  Cl3  1  0.71727581  0.48864496  0.14312497  1
