# generated using pymatgen
data_AsCl2
_symmetry_space_group_name_H-M   Cm
_cell_length_a   10.58966155
_cell_length_b   4.39058353
_cell_length_c   10.50839965
_cell_angle_alpha   90.00000000
_cell_angle_beta   118.55614543
_cell_angle_gamma   90.00000000
_symmetry_Int_Tables_number   8
_chemical_formula_structural   AsCl2
_chemical_formula_sum   'As2 Cl4'
_cell_volume   429.14896718
_cell_formula_units_Z   2
loop_
 _symmetry_equiv_pos_site_id
 _symmetry_equiv_pos_as_xyz
  1  'x, y, z'
  2  'x, -y, z'
  3  'x+1/2, y+1/2, z'
  4  'x+1/2, -y+1/2, z'
loop_
 _atom_site_type_symbol
 _atom_site_label
 _atom_site_symmetry_multiplicity
 _atom_site_fract_x
 _atom_site_fract_y
 _atom_site_fract_z
 _atom_site_occupancy
  As  As0  2  0.37857386  0.00000000  0.02957756  1
  Cl  Cl1  2  0.45906958  0.00000000  0.26264290  1
  Cl  Cl2  2  0.47689802  0.50000000  0.01797954  1
