# generated using pymatgen
data_AsF4
_symmetry_space_group_name_H-M   P1
_cell_length_a   3.96915717
_cell_length_b   4.46658086
_cell_length_c   6.49789029
_cell_angle_alpha   88.53300024
_cell_angle_beta   87.80467474
_cell_angle_gamma   89.77697010
_symmetry_Int_Tables_number   1
_chemical_formula_structural   AsF4
_chemical_formula_sum   'As1 F4'
_cell_volume   115.07547780
_cell_formula_units_Z   1
loop_
 _symmetry_equiv_pos_site_id
 _symmetry_equiv_pos_as_xyz
  1  'x, y, z'
loop_
 _atom_site_type_symbol
 _atom_site_label
 _atom_site_symmetry_multiplicity
 _atom_site_fract_x
 _atom_site_fract_y
 _atom_site_fract_z
 _atom_site_occupancy
  As  As0  1  0.94684340  0.20773702  0.69759654  1
  F  F1  1  0.44240365  0.15385677  0.69725944  1
  F  F2  1  0.92626140  0.16178448  0.97292216  1
  F  F3  1  0.94508022  0.60289710  0.70010421  1
  F  F4  1  0.96041133  0.18962465  0.42151765  1
