# generated using pymatgen
data_AuF2
_symmetry_space_group_name_H-M   Cm
_cell_length_a   6.54374153
_cell_length_b   4.22430573
_cell_length_c   4.15408904
_cell_angle_alpha   90.00000000
_cell_angle_beta   93.21723255
_cell_angle_gamma   90.00000000
_symmetry_Int_Tables_number   8
_chemical_formula_structural   AuF2
_chemical_formula_sum   'Au2 F4'
_cell_volume   114.64952548
_cell_formula_units_Z   2
loop_
 _symmetry_equiv_pos_site_id
 _symmetry_equiv_pos_as_xyz
  1  'x, y, z'
  2  'x, -y, z'
  3  'x+1/2, y+1/2, z'
  4  'x+1/2, -y+1/2, z'
loop_
 _atom_site_type_symbol
 _atom_site_label
 _atom_site_symmetry_multiplicity
 _atom_site_fract_x
 _atom_site_fract_y
 _atom_site_fract_z
 _atom_site_occupancy
  Au  Au0  2  0.08525255  0.00000000  0.08291021  1
  F  F1  2  0.07521461  0.00000000  0.58202144  1
  F  F2  2  0.08946897  0.50000000  0.08506835  1
