# generated using pymatgen
data_Ba4Bi2Cl13
_symmetry_space_group_name_H-M   P1
_cell_length_a   7.69995165
_cell_length_b   9.24840607
_cell_length_c   10.58974286
_cell_angle_alpha   99.09304017
_cell_angle_beta   106.13164385
_cell_angle_gamma   111.58573082
_symmetry_Int_Tables_number   1
_chemical_formula_structural   Ba4Bi2Cl13
_chemical_formula_sum   'Ba4 Bi2 Cl13'
_cell_volume   644.39619613
_cell_formula_units_Z   1
loop_
 _symmetry_equiv_pos_site_id
 _symmetry_equiv_pos_as_xyz
  1  'x, y, z'
loop_
 _atom_site_type_symbol
 _atom_site_label
 _atom_site_symmetry_multiplicity
 _atom_site_fract_x
 _atom_site_fract_y
 _atom_site_fract_z
 _atom_site_occupancy
  Ba  Ba0  1  0.26098143  0.95217539  0.23987093  1
  Ba  Ba1  1  0.40373824  0.45468337  0.07863620  1
  Ba  Ba2  1  0.64076372  0.99560994  0.92566977  1
  Ba  Ba3  1  0.80007563  0.54657165  0.76244401  1
  Bi  Bi4  1  0.04606728  0.12551351  0.62558949  1
  Bi  Bi5  1  0.15026160  0.40700270  0.44589033  1
  Cl  Cl6  1  0.05426422  0.18689153  0.16721500  1
  Cl  Cl7  1  0.06408553  0.90080572  0.45954914  1
  Cl  Cl8  1  0.28320790  0.74316503  0.98353650  1
  Cl  Cl9  1  0.30025306  0.62914073  0.30239034  1
  Cl  Cl10  1  0.40753722  0.61474009  0.68723236  1
  Cl  Cl11  1  0.43943046  0.30026514  0.48165572  1
  Cl  Cl12  1  0.45887972  0.25335377  0.82201717  1
  Cl  Cl13  1  0.56596025  0.20093204  0.15171860  1
  Cl  Cl14  1  0.67322438  0.03515080  0.48318478  1
  Cl  Cl15  1  0.78269297  0.71897936  0.04649519  1
  Cl  Cl16  1  0.90518611  0.52360817  0.49996485  1
  Cl  Cl17  1  0.93433521  0.91514742  0.79208899  1
  Cl  Cl18  1  0.97645509  0.30566363  0.84445061  1
