# generated using pymatgen
data_BaBrF
_symmetry_space_group_name_H-M   'P 1'
_cell_length_a   4.47949403
_cell_length_b   4.47949515
_cell_length_c   4.84823802
_cell_angle_alpha   90.00001187
_cell_angle_beta   90.00000599
_cell_angle_gamma   120.00004117
_symmetry_Int_Tables_number   1
_chemical_formula_structural   BaBrF
_chemical_formula_sum   'Ba1 Br1 F1'
_cell_volume   84.25048646
_cell_formula_units_Z   1
loop_
 _symmetry_equiv_pos_site_id
 _symmetry_equiv_pos_as_xyz
  1  'x, y, z'
loop_
 _atom_site_type_symbol
 _atom_site_label
 _atom_site_symmetry_multiplicity
 _atom_site_fract_x
 _atom_site_fract_y
 _atom_site_fract_z
 _atom_site_occupancy
  Ba  Ba0  1  0.00000001  -0.00000008  0.00000001  1
  Br  Br1  1  0.33333332  0.66666668  0.49999999  1
  F  F2  1  0.66666667  0.33333339  -0.00000000  1
