# generated using pymatgen
data_BaBr
_symmetry_space_group_name_H-M   Pm
_cell_length_a   4.94579017
_cell_length_b   4.50451236
_cell_length_c   5.14594744
_cell_angle_alpha   90.00000000
_cell_angle_beta   102.31888035
_cell_angle_gamma   90.00000000
_symmetry_Int_Tables_number   6
_chemical_formula_structural   BaBr
_chemical_formula_sum   'Ba1 Br1'
_cell_volume   112.00371046
_cell_formula_units_Z   1
loop_
 _symmetry_equiv_pos_site_id
 _symmetry_equiv_pos_as_xyz
  1  'x, y, z'
  2  'x, -y, z'
loop_
 _atom_site_type_symbol
 _atom_site_label
 _atom_site_symmetry_multiplicity
 _atom_site_fract_x
 _atom_site_fract_y
 _atom_site_fract_z
 _atom_site_occupancy
  Ba  Ba0  1  0.11172600  0.00000000  0.08237453  1
  Br  Br1  1  0.51797400  0.00000000  0.66762547  1
