# generated using pymatgen
data_BaHCl
_symmetry_space_group_name_H-M   'P 1'
_cell_length_a   4.36957930
_cell_length_b   4.36957878
_cell_length_c   4.48945816
_cell_angle_alpha   89.99999973
_cell_angle_beta   90.00000595
_cell_angle_gamma   119.99999791
_symmetry_Int_Tables_number   1
_chemical_formula_structural   BaHCl
_chemical_formula_sum   'Ba1 H1 Cl1'
_cell_volume   74.23415481
_cell_formula_units_Z   1
loop_
 _symmetry_equiv_pos_site_id
 _symmetry_equiv_pos_as_xyz
  1  'x, y, z'
loop_
 _atom_site_type_symbol
 _atom_site_label
 _atom_site_symmetry_multiplicity
 _atom_site_fract_x
 _atom_site_fract_y
 _atom_site_fract_z
 _atom_site_occupancy
  Ba  Ba0  1  0.00000010  0.00000011  0.00000003  1
  H  H1  1  0.66666668  0.33333336  -0.00000003  1
  Cl  Cl2  1  0.33333321  0.66666653  0.50000000  1
