# generated using pymatgen
data_BaLiP
_symmetry_space_group_name_H-M   'P 1'
_cell_length_a   4.43257945
_cell_length_b   4.43257888
_cell_length_c   4.52367979
_cell_angle_alpha   90.00000955
_cell_angle_beta   90.00007702
_cell_angle_gamma   120.00002703
_symmetry_Int_Tables_number   1
_chemical_formula_structural   BaLiP
_chemical_formula_sum   'Ba1 Li1 P1'
_cell_volume   76.97246073
_cell_formula_units_Z   1
loop_
 _symmetry_equiv_pos_site_id
 _symmetry_equiv_pos_as_xyz
  1  'x, y, z'
loop_
 _atom_site_type_symbol
 _atom_site_label
 _atom_site_symmetry_multiplicity
 _atom_site_fract_x
 _atom_site_fract_y
 _atom_site_fract_z
 _atom_site_occupancy
  Ba  Ba0  1  -0.00000008  0.00000001  0.00000014  1
  Li  Li1  1  0.33333368  0.66666648  0.49999978  1
  P  P2  1  0.66666639  0.33333352  0.50000008  1
