# generated using pymatgen
data_BaMgO2
_symmetry_space_group_name_H-M   'P 1'
_cell_length_a   3.68506289
_cell_length_b   3.68506374
_cell_length_c   5.13352245
_cell_angle_alpha   89.99999791
_cell_angle_beta   89.99998791
_cell_angle_gamma   89.99998165
_symmetry_Int_Tables_number   1
_chemical_formula_structural   BaMgO2
_chemical_formula_sum   'Ba1 Mg1 O2'
_cell_volume   69.71165188
_cell_formula_units_Z   1
loop_
 _symmetry_equiv_pos_site_id
 _symmetry_equiv_pos_as_xyz
  1  'x, y, z'
loop_
 _atom_site_type_symbol
 _atom_site_label
 _atom_site_symmetry_multiplicity
 _atom_site_fract_x
 _atom_site_fract_y
 _atom_site_fract_z
 _atom_site_occupancy
  Ba  Ba0  1  0.00000002  0.00000001  -0.00000001  1
  Mg  Mg1  1  0.50000002  0.49999997  0.50000001  1
  O  O2  1  0.00000005  -0.00000002  0.49999998  1
  O  O3  1  0.49999991  0.50000004  0.00000003  1
