# generated using pymatgen
data_BaSb2Te
_symmetry_space_group_name_H-M   'P 1'
_cell_length_a   4.94607498
_cell_length_b   4.50154967
_cell_length_c   6.93933248
_cell_angle_alpha   90.00000015
_cell_angle_beta   107.49721010
_cell_angle_gamma   89.99999971
_symmetry_Int_Tables_number   1
_chemical_formula_structural   BaSb2Te
_chemical_formula_sum   'Ba1 Sb2 Te1'
_cell_volume   147.35558714
_cell_formula_units_Z   1
loop_
 _symmetry_equiv_pos_site_id
 _symmetry_equiv_pos_as_xyz
  1  'x, y, z'
loop_
 _atom_site_type_symbol
 _atom_site_label
 _atom_site_symmetry_multiplicity
 _atom_site_fract_x
 _atom_site_fract_y
 _atom_site_fract_z
 _atom_site_occupancy
  Ba  Ba0  1  0.46721187  0.50000000  0.30764905  1
  Sb  Sb1  1  0.55767238  0.50000000  0.82700729  1
  Sb  Sb2  1  0.94777135  -0.00000000  0.92420837  1
  Te  Te3  1  0.02734440  0.00000000  0.44113529  1
