# generated using pymatgen
data_BaTe2Mo
_symmetry_space_group_name_H-M   'P 1'
_cell_length_a   4.75184481
_cell_length_b   5.15292644
_cell_length_c   8.27447661
_cell_angle_alpha   89.98725514
_cell_angle_beta   122.28183096
_cell_angle_gamma   90.00018807
_symmetry_Int_Tables_number   1
_chemical_formula_structural   BaTe2Mo
_chemical_formula_sum   'Ba1 Te2 Mo1'
_cell_volume   171.29117963
_cell_formula_units_Z   1
loop_
 _symmetry_equiv_pos_site_id
 _symmetry_equiv_pos_as_xyz
  1  'x, y, z'
loop_
 _atom_site_type_symbol
 _atom_site_label
 _atom_site_symmetry_multiplicity
 _atom_site_fract_x
 _atom_site_fract_y
 _atom_site_fract_z
 _atom_site_occupancy
  Ba  Ba0  1  -0.04816943  0.49991561  -0.07375782  1
  Te  Te1  1  0.35190566  0.50009103  0.42320503  1
  Te  Te2  1  0.38692838  -0.00005686  0.85880589  1
  Mo  Mo3  1  0.42423539  0.00005022  0.53924690  1
