# generated using pymatgen
data_BaTlSb
_symmetry_space_group_name_H-M   'P 1'
_cell_length_a   4.98965487
_cell_length_b   4.98964885
_cell_length_c   5.29756983
_cell_angle_alpha   89.99999497
_cell_angle_beta   89.99988112
_cell_angle_gamma   119.99998321
_symmetry_Int_Tables_number   1
_chemical_formula_structural   BaTlSb
_chemical_formula_sum   'Ba1 Tl1 Sb1'
_cell_volume   114.22150691
_cell_formula_units_Z   1
loop_
 _symmetry_equiv_pos_site_id
 _symmetry_equiv_pos_as_xyz
  1  'x, y, z'
loop_
 _atom_site_type_symbol
 _atom_site_label
 _atom_site_symmetry_multiplicity
 _atom_site_fract_x
 _atom_site_fract_y
 _atom_site_fract_z
 _atom_site_occupancy
  Ba  Ba0  1  0.00000037  0.00000006  0.00263226  1
  Tl  Tl1  1  0.33333259  0.66666653  0.61832800  1
  Sb  Sb2  1  0.66666704  0.33333341  0.37903973  1
