# generated using pymatgen
data_Be3ReN4
_symmetry_space_group_name_H-M   Amm2
_cell_length_a   2.98331001
_cell_length_b   6.69036586
_cell_length_c   7.36033788
_cell_angle_alpha   90.00000000
_cell_angle_beta   90.00000000
_cell_angle_gamma   90.00000000
_symmetry_Int_Tables_number   38
_chemical_formula_structural   Be3ReN4
_chemical_formula_sum   'Be6 Re2 N8'
_cell_volume   146.90818883
_cell_formula_units_Z   2
loop_
 _symmetry_equiv_pos_site_id
 _symmetry_equiv_pos_as_xyz
  1  'x, y, z'
  2  '-x, -y, z'
  3  '-x, y, z'
  4  'x, -y, z'
  5  'x, y+1/2, z+1/2'
  6  '-x, -y+1/2, z+1/2'
  7  '-x, y+1/2, z+1/2'
  8  'x, -y+1/2, z+1/2'
loop_
 _atom_site_type_symbol
 _atom_site_label
 _atom_site_symmetry_multiplicity
 _atom_site_fract_x
 _atom_site_fract_y
 _atom_site_fract_z
 _atom_site_occupancy
  Be  Be0  4  0.50000000  0.24783959  0.82171510  1
  Be  Be1  2  0.00000000  0.00000000  0.35672947  1
  Re  Re2  2  0.00000000  0.00000000  0.99306681  1
  N  N3  4  0.00000000  0.21984314  0.45349516  1
  N  N4  2  0.50000000  0.00000000  0.21142101  1
  N  N5  2  0.50000000  0.00000000  0.79236308  1
