# generated using pymatgen
data_BeCdI2
_symmetry_space_group_name_H-M   'P 1'
_cell_length_a   4.91834916
_cell_length_b   3.88841006
_cell_length_c   11.00400613
_cell_angle_alpha   64.38836278
_cell_angle_beta   89.99977443
_cell_angle_gamma   89.99734909
_symmetry_Int_Tables_number   1
_chemical_formula_structural   BeCdI2
_chemical_formula_sum   'Be1 Cd1 I2'
_cell_volume   189.76925803
_cell_formula_units_Z   1
loop_
 _symmetry_equiv_pos_site_id
 _symmetry_equiv_pos_as_xyz
  1  'x, y, z'
loop_
 _atom_site_type_symbol
 _atom_site_label
 _atom_site_symmetry_multiplicity
 _atom_site_fract_x
 _atom_site_fract_y
 _atom_site_fract_z
 _atom_site_occupancy
  Be  Be0  1  -0.00000706  -0.13483530  -0.09124162  1
  Cd  Cd1  1  0.50000986  0.49310933  0.44273331  1
  I  I2  1  0.00002098  0.60151146  0.13046907  1
  I  I3  1  -0.00002379  0.54021451  0.76623925  1
