# generated using pymatgen
data_BeRuS2
_symmetry_space_group_name_H-M   'P 1'
_cell_length_a   4.70329662
_cell_length_b   3.35301008
_cell_length_c   6.26868664
_cell_angle_alpha   90.00011342
_cell_angle_beta   139.65130044
_cell_angle_gamma   89.99999373
_symmetry_Int_Tables_number   1
_chemical_formula_structural   BeRuS2
_chemical_formula_sum   'Be1 Ru1 S2'
_cell_volume   64.00469519
_cell_formula_units_Z   1
loop_
 _symmetry_equiv_pos_site_id
 _symmetry_equiv_pos_as_xyz
  1  'x, y, z'
loop_
 _atom_site_type_symbol
 _atom_site_label
 _atom_site_symmetry_multiplicity
 _atom_site_fract_x
 _atom_site_fract_y
 _atom_site_fract_z
 _atom_site_occupancy
  Be  Be0  1  -0.10058365  0.49999977  0.54176232  1
  Ru  Ru1  1  0.60370128  0.00000063  0.63498878  1
  S  S2  1  0.25985211  0.49999935  0.24707746  1
  S  S3  1  0.26803026  0.00000025  0.78347144  1
