# generated using pymatgen
data_Bi3S4Cl
_symmetry_space_group_name_H-M   Pm
_cell_length_a   5.06957293
_cell_length_b   4.98700717
_cell_length_c   11.19410350
_cell_angle_alpha   90.00000000
_cell_angle_beta   91.15626650
_cell_angle_gamma   90.00000000
_symmetry_Int_Tables_number   6
_chemical_formula_structural   Bi3S4Cl
_chemical_formula_sum   'Bi3 S4 Cl1'
_cell_volume   282.95165934
_cell_formula_units_Z   1
loop_
 _symmetry_equiv_pos_site_id
 _symmetry_equiv_pos_as_xyz
  1  'x, y, z'
  2  'x, -y, z'
loop_
 _atom_site_type_symbol
 _atom_site_label
 _atom_site_symmetry_multiplicity
 _atom_site_fract_x
 _atom_site_fract_y
 _atom_site_fract_z
 _atom_site_occupancy
  Bi  Bi0  1  0.05407890  0.50000000  0.97896630  1
  Bi  Bi1  1  0.16491851  0.50000000  0.29705352  1
  Bi  Bi2  1  0.44467384  0.00000000  0.69374184  1
  S  S3  1  0.10741778  0.00000000  0.51489079  1
  S  S4  1  0.27110933  0.50000000  0.76330300  1
  S  S5  1  0.34779171  0.00000000  0.36475608  1
  S  S6  1  0.46696588  0.50000000  0.11401536  1
  Cl  Cl7  1  0.84534406  0.00000000  0.93107311  1
