# generated using pymatgen
data_BiClF
_symmetry_space_group_name_H-M   'P 1'
_cell_length_a   3.33002060
_cell_length_b   3.87422933
_cell_length_c   6.06611658
_cell_angle_alpha   89.99996482
_cell_angle_beta   89.99921035
_cell_angle_gamma   90.00056244
_symmetry_Int_Tables_number   1
_chemical_formula_structural   BiClF
_chemical_formula_sum   'Bi1 Cl1 F1'
_cell_volume   78.26056828
_cell_formula_units_Z   1
loop_
 _symmetry_equiv_pos_site_id
 _symmetry_equiv_pos_as_xyz
  1  'x, y, z'
loop_
 _atom_site_type_symbol
 _atom_site_label
 _atom_site_symmetry_multiplicity
 _atom_site_fract_x
 _atom_site_fract_y
 _atom_site_fract_z
 _atom_site_occupancy
  Bi  Bi0  1  0.00000062  0.00000035  -0.06566973  1
  Cl  Cl1  1  0.49999981  0.50000125  0.65992912  1
  F  F2  1  -0.00000043  0.49999840  0.13634061  1
