# generated using pymatgen
data_BiCl2
_symmetry_space_group_name_H-M   P1
_cell_length_a   3.61201124
_cell_length_b   5.36089156
_cell_length_c   10.37868367
_cell_angle_alpha   93.60720318
_cell_angle_beta   92.13813148
_cell_angle_gamma   92.35094865
_symmetry_Int_Tables_number   1
_chemical_formula_structural   BiCl2
_chemical_formula_sum   'Bi1 Cl2'
_cell_volume   200.24130877
_cell_formula_units_Z   1
loop_
 _symmetry_equiv_pos_site_id
 _symmetry_equiv_pos_as_xyz
  1  'x, y, z'
loop_
 _atom_site_type_symbol
 _atom_site_label
 _atom_site_symmetry_multiplicity
 _atom_site_fract_x
 _atom_site_fract_y
 _atom_site_fract_z
 _atom_site_occupancy
  Bi  Bi0  1  0.11439604  0.56993553  0.95791015  1
  Cl  Cl1  1  0.08571825  0.54358612  0.72206782  1
  Cl  Cl2  1  0.17971905  0.07634503  0.00882203  1
