# generated using pymatgen
data_BiPbSe4
_symmetry_space_group_name_H-M   P1
_cell_length_a   4.18345981
_cell_length_b   4.43459610
_cell_length_c   9.67433110
_cell_angle_alpha   92.62581965
_cell_angle_beta   95.58208848
_cell_angle_gamma   90.78052628
_symmetry_Int_Tables_number   1
_chemical_formula_structural   BiPbSe4
_chemical_formula_sum   'Bi1 Pb1 Se4'
_cell_volume   178.40958510
_cell_formula_units_Z   1
loop_
 _symmetry_equiv_pos_site_id
 _symmetry_equiv_pos_as_xyz
  1  'x, y, z'
loop_
 _atom_site_type_symbol
 _atom_site_label
 _atom_site_symmetry_multiplicity
 _atom_site_fract_x
 _atom_site_fract_y
 _atom_site_fract_z
 _atom_site_occupancy
  Bi  Bi0  1  0.50261184  0.44613617  0.13656016  1
  Pb  Pb1  1  0.85780950  0.96809769  0.77318246  1
  Se  Se2  1  0.40850074  0.96839713  0.50607502  1
  Se  Se3  1  0.41985417  0.47219495  0.84560603  1
  Se  Se4  1  0.65049798  0.46553605  0.45905579  1
  Se  Se5  1  0.98399243  0.01297134  0.12292055  1
