# generated using pymatgen
data_BiS2Br
_symmetry_space_group_name_H-M   'P 1'
_cell_length_a   4.26318113
_cell_length_b   5.76463812
_cell_length_c   5.29658790
_cell_angle_alpha   90.00002707
_cell_angle_beta   119.92939569
_cell_angle_gamma   89.99997425
_symmetry_Int_Tables_number   1
_chemical_formula_structural   BiS2Br
_chemical_formula_sum   'Bi1 S2 Br1'
_cell_volume   112.80833568
_cell_formula_units_Z   1
loop_
 _symmetry_equiv_pos_site_id
 _symmetry_equiv_pos_as_xyz
  1  'x, y, z'
loop_
 _atom_site_type_symbol
 _atom_site_label
 _atom_site_symmetry_multiplicity
 _atom_site_fract_x
 _atom_site_fract_y
 _atom_site_fract_z
 _atom_site_occupancy
  Bi  Bi0  1  0.63640745  0.00000003  0.37649340  1
  S  S1  1  0.62788175  0.50000005  0.29343301  1
  S  S2  1  0.93505313  -0.00000002  0.03213699  1
  Br  Br3  1  0.30065767  0.49999995  0.79793660  1
