# generated using pymatgen
data_BiS
_symmetry_space_group_name_H-M   C2/m
_cell_length_a   9.18704911
_cell_length_b   6.68316495
_cell_length_c   5.49879463
_cell_angle_alpha   90.00000000
_cell_angle_beta   124.66079830
_cell_angle_gamma   90.00000000
_symmetry_Int_Tables_number   12
_chemical_formula_structural   BiS
_chemical_formula_sum   'Bi4 S4'
_cell_volume   277.70214403
_cell_formula_units_Z   4
loop_
 _symmetry_equiv_pos_site_id
 _symmetry_equiv_pos_as_xyz
  1  'x, y, z'
  2  '-x, -y, -z'
  3  '-x, y, -z'
  4  'x, -y, z'
  5  'x+1/2, y+1/2, z'
  6  '-x+1/2, -y+1/2, -z'
  7  '-x+1/2, y+1/2, -z'
  8  'x+1/2, -y+1/2, z'
loop_
 _atom_site_type_symbol
 _atom_site_label
 _atom_site_symmetry_multiplicity
 _atom_site_fract_x
 _atom_site_fract_y
 _atom_site_fract_z
 _atom_site_occupancy
  Bi  Bi0  4  0.20624565  0.00000000  0.45201111  1
  S  S1  4  0.13141582  0.00000000  0.88027661  1
