# generated using pymatgen
data_CaAsF
_symmetry_space_group_name_H-M   Pmmm
_cell_length_a   3.27728108
_cell_length_b   4.20192708
_cell_length_c   5.92773435
_cell_angle_alpha   90.00000000
_cell_angle_beta   90.00000000
_cell_angle_gamma   90.00000000
_symmetry_Int_Tables_number   47
_chemical_formula_structural   CaAsF
_chemical_formula_sum   'Ca1 As1 F1'
_cell_volume   81.63021405
_cell_formula_units_Z   1
loop_
 _symmetry_equiv_pos_site_id
 _symmetry_equiv_pos_as_xyz
  1  'x, y, z'
  2  '-x, -y, -z'
  3  '-x, -y, z'
  4  'x, y, -z'
  5  'x, -y, -z'
  6  '-x, y, z'
  7  '-x, y, -z'
  8  'x, -y, z'
loop_
 _atom_site_type_symbol
 _atom_site_label
 _atom_site_symmetry_multiplicity
 _atom_site_fract_x
 _atom_site_fract_y
 _atom_site_fract_z
 _atom_site_occupancy
  Ca  Ca0  1  0.50000000  0.50000000  0.50000000  1
  As  As1  1  0.50000000  0.50000000  0.00000000  1
  F  F2  1  0.50000000  0.00000000  0.50000000  1
