# generated using pymatgen
data_CaCdS2
_symmetry_space_group_name_H-M   'P 1'
_cell_length_a   3.97218924
_cell_length_b   3.97218944
_cell_length_c   5.62435874
_cell_angle_alpha   90.00000035
_cell_angle_beta   89.99999951
_cell_angle_gamma   89.99999798
_symmetry_Int_Tables_number   1
_chemical_formula_structural   CaCdS2
_chemical_formula_sum   'Ca1 Cd1 S2'
_cell_volume   88.74275287
_cell_formula_units_Z   1
loop_
 _symmetry_equiv_pos_site_id
 _symmetry_equiv_pos_as_xyz
  1  'x, y, z'
loop_
 _atom_site_type_symbol
 _atom_site_label
 _atom_site_symmetry_multiplicity
 _atom_site_fract_x
 _atom_site_fract_y
 _atom_site_fract_z
 _atom_site_occupancy
  Ca  Ca0  1  -0.00000001  0.00000000  0.00000000  1
  Cd  Cd1  1  0.50000000  0.50000000  0.50000000  1
  S  S2  1  0.00000001  0.00000000  0.50000000  1
  S  S3  1  0.49999999  0.49999999  -0.00000000  1
