# generated using pymatgen
data_CaPAu
_symmetry_space_group_name_H-M   'P 1'
_cell_length_a   4.23334388
_cell_length_b   4.23334390
_cell_length_c   4.14255090
_cell_angle_alpha   89.99999976
_cell_angle_beta   89.99999945
_cell_angle_gamma   120.00000053
_symmetry_Int_Tables_number   1
_chemical_formula_structural   CaPAu
_chemical_formula_sum   'Ca1 P1 Au1'
_cell_volume   64.29327990
_cell_formula_units_Z   1
loop_
 _symmetry_equiv_pos_site_id
 _symmetry_equiv_pos_as_xyz
  1  'x, y, z'
loop_
 _atom_site_type_symbol
 _atom_site_label
 _atom_site_symmetry_multiplicity
 _atom_site_fract_x
 _atom_site_fract_y
 _atom_site_fract_z
 _atom_site_occupancy
  Ca  Ca0  1  0.66666665  0.33333333  -0.00000000  1
  P  P1  1  0.33333334  0.66666666  0.50000000  1
  Au  Au2  1  0.00000001  0.00000000  0.50000000  1
