# generated using pymatgen
data_CaRuI2
_symmetry_space_group_name_H-M   'P 1'
_cell_length_a   4.45315471
_cell_length_b   3.78869698
_cell_length_c   8.34313189
_cell_angle_alpha   90.00231967
_cell_angle_beta   94.63064145
_cell_angle_gamma   90.00094686
_symmetry_Int_Tables_number   1
_chemical_formula_structural   CaRuI2
_chemical_formula_sum   'Ca1 Ru1 I2'
_cell_volume   140.30296241
_cell_formula_units_Z   1
loop_
 _symmetry_equiv_pos_site_id
 _symmetry_equiv_pos_as_xyz
  1  'x, y, z'
loop_
 _atom_site_type_symbol
 _atom_site_label
 _atom_site_symmetry_multiplicity
 _atom_site_fract_x
 _atom_site_fract_y
 _atom_site_fract_z
 _atom_site_occupancy
  Ca  Ca0  1  -0.09847254  0.50000362  0.03278969  1
  Ru  Ru1  1  0.38845640  -0.00001548  -0.06575180  1
  I  I2  1  0.35839578  0.50000867  0.71947299  1
  I  I3  1  0.43262036  0.00000319  0.25118913  1
