# generated using pymatgen
data_CaSb2Se
_symmetry_space_group_name_H-M   'P 1'
_cell_length_a   4.28735965
_cell_length_b   4.28870430
_cell_length_c   6.52117417
_cell_angle_alpha   89.99998419
_cell_angle_beta   90.58813980
_cell_angle_gamma   89.99464618
_symmetry_Int_Tables_number   1
_chemical_formula_structural   CaSb2Se
_chemical_formula_sum   'Ca1 Sb2 Se1'
_cell_volume   119.89993190
_cell_formula_units_Z   1
loop_
 _symmetry_equiv_pos_site_id
 _symmetry_equiv_pos_as_xyz
  1  'x, y, z'
loop_
 _atom_site_type_symbol
 _atom_site_label
 _atom_site_symmetry_multiplicity
 _atom_site_fract_x
 _atom_site_fract_y
 _atom_site_fract_z
 _atom_site_occupancy
  Ca  Ca0  1  0.48997527  0.49999931  0.64034236  1
  Sb  Sb1  1  0.00698799  0.00000111  0.07093805  1
  Sb  Sb2  1  0.51186497  0.49999969  0.14181415  1
  Se  Se3  1  0.99117178  -0.00000012  0.64690544  1
