# generated using pymatgen
data_CaSnI2
_symmetry_space_group_name_H-M   'P 1'
_cell_length_a   7.39545708
_cell_length_b   4.28857296
_cell_length_c   6.07689058
_cell_angle_alpha   89.99859803
_cell_angle_beta   70.11061713
_cell_angle_gamma   90.00902157
_symmetry_Int_Tables_number   1
_chemical_formula_structural   CaSnI2
_chemical_formula_sum   'Ca1 Sn1 I2'
_cell_volume   181.23802032
_cell_formula_units_Z   1
loop_
 _symmetry_equiv_pos_site_id
 _symmetry_equiv_pos_as_xyz
  1  'x, y, z'
loop_
 _atom_site_type_symbol
 _atom_site_label
 _atom_site_symmetry_multiplicity
 _atom_site_fract_x
 _atom_site_fract_y
 _atom_site_fract_z
 _atom_site_occupancy
  Ca  Ca0  1  0.04522554  0.49998078  0.43833358  1
  Sn  Sn1  1  -0.13272238  -0.00005079  0.02098545  1
  I  I2  1  0.18112507  0.50001529  0.88169845  1
  I  I3  1  0.37207177  0.00005471  0.30568252  1
