# generated using pymatgen
data_CaTe2
_symmetry_space_group_name_H-M   Cm
_cell_length_a   11.57483678
_cell_length_b   4.37336518
_cell_length_c   4.55964329
_cell_angle_alpha   90.00000000
_cell_angle_beta   91.91141369
_cell_angle_gamma   90.00000000
_symmetry_Int_Tables_number   8
_chemical_formula_structural   CaTe2
_chemical_formula_sum   'Ca2 Te4'
_cell_volume   230.68522206
_cell_formula_units_Z   2
loop_
 _symmetry_equiv_pos_site_id
 _symmetry_equiv_pos_as_xyz
  1  'x, y, z'
  2  'x, -y, z'
  3  'x+1/2, y+1/2, z'
  4  'x+1/2, -y+1/2, z'
loop_
 _atom_site_type_symbol
 _atom_site_label
 _atom_site_symmetry_multiplicity
 _atom_site_fract_x
 _atom_site_fract_y
 _atom_site_fract_z
 _atom_site_occupancy
  Ca  Ca0  2  0.01725948  0.50000000  0.07989370  1
  Te  Te1  2  0.19885681  0.50000000  0.59145940  1
  Te  Te2  2  0.44920099  0.50000000  0.57734690  1
