# generated using pymatgen
data_CaTiF
_symmetry_space_group_name_H-M   'P 1'
_cell_length_a   3.33743203
_cell_length_b   3.55648186
_cell_length_c   5.30365383
_cell_angle_alpha   90.00000414
_cell_angle_beta   90.00000200
_cell_angle_gamma   90.00002559
_symmetry_Int_Tables_number   1
_chemical_formula_structural   CaTiF
_chemical_formula_sum   'Ca1 Ti1 F1'
_cell_volume   62.95180651
_cell_formula_units_Z   1
loop_
 _symmetry_equiv_pos_site_id
 _symmetry_equiv_pos_as_xyz
  1  'x, y, z'
loop_
 _atom_site_type_symbol
 _atom_site_label
 _atom_site_symmetry_multiplicity
 _atom_site_fract_x
 _atom_site_fract_y
 _atom_site_fract_z
 _atom_site_occupancy
  Ca  Ca0  1  0.50000001  0.50000005  0.52230041  1
  Ti  Ti1  1  -0.00000000  -0.00000005  -0.00010191  1
  F  F2  1  -0.00000000  0.49999999  0.20810150  1
