# generated using pymatgen
data_CaVSb2
_symmetry_space_group_name_H-M   'P 1'
_cell_length_a   3.41475896
_cell_length_b   5.47194430
_cell_length_c   5.53287785
_cell_angle_alpha   89.99999581
_cell_angle_beta   99.20709432
_cell_angle_gamma   89.99999034
_symmetry_Int_Tables_number   1
_chemical_formula_structural   CaVSb2
_chemical_formula_sum   'Ca1 V1 Sb2'
_cell_volume   102.05192431
_cell_formula_units_Z   1
loop_
 _symmetry_equiv_pos_site_id
 _symmetry_equiv_pos_as_xyz
  1  'x, y, z'
loop_
 _atom_site_type_symbol
 _atom_site_label
 _atom_site_symmetry_multiplicity
 _atom_site_fract_x
 _atom_site_fract_y
 _atom_site_fract_z
 _atom_site_occupancy
  Ca  Ca0  1  0.73587027  0.50000001  0.18841690  1
  V  V1  1  0.39620635  -0.00000001  0.57851392  1
  Sb  Sb2  1  0.16649357  0.00000001  0.06505590  1
  Sb  Sb3  1  0.30142981  0.50000000  0.66801328  1
