# generated using pymatgen
data_Cd2Rh
_symmetry_space_group_name_H-M   Cm
_cell_length_a   9.73379516
_cell_length_b   3.09682811
_cell_length_c   4.25451731
_cell_angle_alpha   90.00000000
_cell_angle_beta   103.61828295
_cell_angle_gamma   90.00000000
_symmetry_Int_Tables_number   8
_chemical_formula_structural   Cd2Rh
_chemical_formula_sum   'Cd4 Rh2'
_cell_volume   124.64213728
_cell_formula_units_Z   2
loop_
 _symmetry_equiv_pos_site_id
 _symmetry_equiv_pos_as_xyz
  1  'x, y, z'
  2  'x, -y, z'
  3  'x+1/2, y+1/2, z'
  4  'x+1/2, -y+1/2, z'
loop_
 _atom_site_type_symbol
 _atom_site_label
 _atom_site_symmetry_multiplicity
 _atom_site_fract_x
 _atom_site_fract_y
 _atom_site_fract_z
 _atom_site_occupancy
  Cd  Cd0  2  0.07351548  0.50000000  0.40387887  1
  Cd  Cd1  2  0.27343739  0.00000000  0.00070708  1
  Rh  Rh2  2  0.48635524  0.50000000  0.85681405  1
