# generated using pymatgen
data_CdClF
_symmetry_space_group_name_H-M   'P 1'
_cell_length_a   3.90047763
_cell_length_b   3.90047786
_cell_length_c   4.02837876
_cell_angle_alpha   90.00000098
_cell_angle_beta   89.99999927
_cell_angle_gamma   120.00007954
_symmetry_Int_Tables_number   1
_chemical_formula_structural   CdClF
_chemical_formula_sum   'Cd1 Cl1 F1'
_cell_volume   53.07575607
_cell_formula_units_Z   1
loop_
 _symmetry_equiv_pos_site_id
 _symmetry_equiv_pos_as_xyz
  1  'x, y, z'
loop_
 _atom_site_type_symbol
 _atom_site_label
 _atom_site_symmetry_multiplicity
 _atom_site_fract_x
 _atom_site_fract_y
 _atom_site_fract_z
 _atom_site_occupancy
  Cd  Cd0  1  -0.00000013  0.00000009  -0.00000004  1
  Cl  Cl1  1  0.33333348  0.66666657  0.50000003  1
  F  F2  1  0.66666665  0.33333334  0.00000001  1
