# generated using pymatgen
data_CdHgI2
_symmetry_space_group_name_H-M   'P 1'
_cell_length_a   5.45042027
_cell_length_b   4.14315366
_cell_length_c   11.06867716
_cell_angle_alpha   89.99320154
_cell_angle_beta   89.99893777
_cell_angle_gamma   90.00302489
_symmetry_Int_Tables_number   1
_chemical_formula_structural   CdHgI2
_chemical_formula_sum   'Cd1 Hg1 I2'
_cell_volume   249.95207643
_cell_formula_units_Z   1
loop_
 _symmetry_equiv_pos_site_id
 _symmetry_equiv_pos_as_xyz
  1  'x, y, z'
loop_
 _atom_site_type_symbol
 _atom_site_label
 _atom_site_symmetry_multiplicity
 _atom_site_fract_x
 _atom_site_fract_y
 _atom_site_fract_z
 _atom_site_occupancy
  Cd  Cd0  1  -0.00000026  0.00000449  -0.05620003  1
  Hg  Hg1  1  0.49999965  0.50000191  0.43244835  1
  I  I2  1  -0.00000130  0.50000168  0.12647808  1
  I  I3  1  0.00000191  0.49999192  0.76187360  1
