# generated using pymatgen
data_CdICl
_symmetry_space_group_name_H-M   'P 1'
_cell_length_a   4.14970285
_cell_length_b   4.14970286
_cell_length_c   6.95250747
_cell_angle_alpha   89.99998927
_cell_angle_beta   90.00000939
_cell_angle_gamma   120.00003801
_symmetry_Int_Tables_number   1
_chemical_formula_structural   CdICl
_chemical_formula_sum   'Cd1 I1 Cl1'
_cell_volume   103.68261185
_cell_formula_units_Z   1
loop_
 _symmetry_equiv_pos_site_id
 _symmetry_equiv_pos_as_xyz
  1  'x, y, z'
loop_
 _atom_site_type_symbol
 _atom_site_label
 _atom_site_symmetry_multiplicity
 _atom_site_fract_x
 _atom_site_fract_y
 _atom_site_fract_z
 _atom_site_occupancy
  Cd  Cd0  1  -0.00000009  -0.00000011  0.01641174  1
  I  I1  1  0.33333327  0.66666657  0.76128803  1
  Cl  Cl2  1  0.66666681  0.33333354  0.21230023  1
