# generated using pymatgen
data_CdSnSb2
_symmetry_space_group_name_H-M   'P 1'
_cell_length_a   3.04404514
_cell_length_b   6.17220438
_cell_length_c   6.16675257
_cell_angle_alpha   90.00001112
_cell_angle_beta   89.81552623
_cell_angle_gamma   90.00005263
_symmetry_Int_Tables_number   1
_chemical_formula_structural   CdSnSb2
_chemical_formula_sum   'Cd1 Sn1 Sb2'
_cell_volume   115.86323756
_cell_formula_units_Z   1
loop_
 _symmetry_equiv_pos_site_id
 _symmetry_equiv_pos_as_xyz
  1  'x, y, z'
loop_
 _atom_site_type_symbol
 _atom_site_label
 _atom_site_symmetry_multiplicity
 _atom_site_fract_x
 _atom_site_fract_y
 _atom_site_fract_z
 _atom_site_occupancy
  Cd  Cd0  1  0.89457408  0.50000003  0.11994370  1
  Sn  Sn1  1  0.85893460  0.00000016  0.62903084  1
  Sb  Sb2  1  0.87394919  0.49999982  0.62091504  1
  Sb  Sb3  1  0.87254212  -0.00000001  0.13011042  1
