# generated using pymatgen
data_CeCl2
_symmetry_space_group_name_H-M   Cm
_cell_length_a   8.62542074
_cell_length_b   4.79382408
_cell_length_c   5.56982722
_cell_angle_alpha   90.00000000
_cell_angle_beta   90.56015393
_cell_angle_gamma   90.00000000
_symmetry_Int_Tables_number   8
_chemical_formula_structural   CeCl2
_chemical_formula_sum   'Ce2 Cl4'
_cell_volume   230.29438486
_cell_formula_units_Z   2
loop_
 _symmetry_equiv_pos_site_id
 _symmetry_equiv_pos_as_xyz
  1  'x, y, z'
  2  'x, -y, z'
  3  'x+1/2, y+1/2, z'
  4  'x+1/2, -y+1/2, z'
loop_
 _atom_site_type_symbol
 _atom_site_label
 _atom_site_symmetry_multiplicity
 _atom_site_fract_x
 _atom_site_fract_y
 _atom_site_fract_z
 _atom_site_occupancy
  Ce  Ce0  2  0.21402777  0.50000000  0.35018413  1
  Cl  Cl1  2  0.04180348  0.00000000  0.36439749  1
  Cl  Cl2  2  0.23371173  0.50000000  0.85231838  1
