# generated using pymatgen
data_CeHgSe2
_symmetry_space_group_name_H-M   'P 1'
_cell_length_a   4.20760178
_cell_length_b   4.20619271
_cell_length_c   6.22742742
_cell_angle_alpha   89.95218101
_cell_angle_beta   90.01298487
_cell_angle_gamma   89.99847730
_symmetry_Int_Tables_number   1
_chemical_formula_structural   CeHgSe2
_chemical_formula_sum   'Ce1 Hg1 Se2'
_cell_volume   110.21286908
_cell_formula_units_Z   1
loop_
 _symmetry_equiv_pos_site_id
 _symmetry_equiv_pos_as_xyz
  1  'x, y, z'
loop_
 _atom_site_type_symbol
 _atom_site_label
 _atom_site_symmetry_multiplicity
 _atom_site_fract_x
 _atom_site_fract_y
 _atom_site_fract_z
 _atom_site_occupancy
  Ce  Ce0  1  0.00000051  0.00000026  0.00000028  1
  Hg  Hg1  1  0.49999966  0.49999977  0.49999985  1
  Se  Se2  1  -0.00000034  -0.00000017  0.50000002  1
  Se  Se3  1  0.50000017  0.50000013  -0.00000015  1
