# generated using pymatgen
data_CeHoSb2
_symmetry_space_group_name_H-M   'P 1'
_cell_length_a   4.43868919
_cell_length_b   4.43875698
_cell_length_c   6.26161401
_cell_angle_alpha   90.00052144
_cell_angle_beta   89.99896032
_cell_angle_gamma   90.00013244
_symmetry_Int_Tables_number   1
_chemical_formula_structural   CeHoSb2
_chemical_formula_sum   'Ce1 Ho1 Sb2'
_cell_volume   123.36796366
_cell_formula_units_Z   1
loop_
 _symmetry_equiv_pos_site_id
 _symmetry_equiv_pos_as_xyz
  1  'x, y, z'
loop_
 _atom_site_type_symbol
 _atom_site_label
 _atom_site_symmetry_multiplicity
 _atom_site_fract_x
 _atom_site_fract_y
 _atom_site_fract_z
 _atom_site_occupancy
  Ce  Ce0  1  -0.00000003  0.00000003  0.00000010  1
  Ho  Ho1  1  0.50000014  0.49999984  0.49999983  1
  Sb  Sb2  1  -0.00000009  0.00000011  0.50000002  1
  Sb  Sb3  1  0.49999997  0.50000002  0.00000005  1
