# generated using pymatgen
data_CeHS
_symmetry_space_group_name_H-M   'P 1'
_cell_length_a   3.92024703
_cell_length_b   3.92022919
_cell_length_c   3.84142640
_cell_angle_alpha   89.99929086
_cell_angle_beta   90.00035463
_cell_angle_gamma   119.99985365
_symmetry_Int_Tables_number   1
_chemical_formula_structural   CeHS
_chemical_formula_sum   'Ce1 H1 S1'
_cell_volume   51.12680820
_cell_formula_units_Z   1
loop_
 _symmetry_equiv_pos_site_id
 _symmetry_equiv_pos_as_xyz
  1  'x, y, z'
loop_
 _atom_site_type_symbol
 _atom_site_label
 _atom_site_symmetry_multiplicity
 _atom_site_fract_x
 _atom_site_fract_y
 _atom_site_fract_z
 _atom_site_occupancy
  Ce  Ce0  1  0.00000059  0.00000028  0.00000005  1
  H  H1  1  0.66666698  0.33333350  0.00000001  1
  S  S2  1  0.33333244  0.66666622  0.49999994  1
