# generated using pymatgen
data_CeInS
_symmetry_space_group_name_H-M   'P 1'
_cell_length_a   5.79170721
_cell_length_b   3.90010296
_cell_length_c   3.90158000
_cell_angle_alpha   90.01036350
_cell_angle_beta   89.99814305
_cell_angle_gamma   89.95496832
_symmetry_Int_Tables_number   1
_chemical_formula_structural   CeInS
_chemical_formula_sum   'Ce1 In1 S1'
_cell_volume   88.12985291
_cell_formula_units_Z   1
loop_
 _symmetry_equiv_pos_site_id
 _symmetry_equiv_pos_as_xyz
  1  'x, y, z'
loop_
 _atom_site_type_symbol
 _atom_site_label
 _atom_site_symmetry_multiplicity
 _atom_site_fract_x
 _atom_site_fract_y
 _atom_site_fract_z
 _atom_site_occupancy
  Ce  Ce0  1  -0.00000647  0.00000257  -0.00000068  1
  In  In1  1  0.50000223  0.49999472  0.50000155  1
  S  S2  1  0.00000424  0.50000270  0.49999913  1
