# generated using pymatgen
data_CePAu
_symmetry_space_group_name_H-M   'P 1'
_cell_length_a   3.86504655
_cell_length_b   3.86504898
_cell_length_c   5.99350758
_cell_angle_alpha   89.99954553
_cell_angle_beta   90.00031252
_cell_angle_gamma   119.99992319
_symmetry_Int_Tables_number   1
_chemical_formula_structural   CePAu
_chemical_formula_sum   'Ce1 P1 Au1'
_cell_volume   77.53927886
_cell_formula_units_Z   1
loop_
 _symmetry_equiv_pos_site_id
 _symmetry_equiv_pos_as_xyz
  1  'x, y, z'
loop_
 _atom_site_type_symbol
 _atom_site_label
 _atom_site_symmetry_multiplicity
 _atom_site_fract_x
 _atom_site_fract_y
 _atom_site_fract_z
 _atom_site_occupancy
  Ce  Ce0  1  0.00000039  -0.00000163  -0.00314519  1
  P  P1  1  0.33333319  0.66666708  0.72542675  1
  Au  Au2  1  -0.00000024  0.00000121  0.47981844  1
