# generated using pymatgen
data_CeTiO
_symmetry_space_group_name_H-M   'P 1'
_cell_length_a   4.03644418
_cell_length_b   3.55646686
_cell_length_c   3.55623229
_cell_angle_alpha   89.99999807
_cell_angle_beta   90.00000155
_cell_angle_gamma   89.99999759
_symmetry_Int_Tables_number   1
_chemical_formula_structural   CeTiO
_chemical_formula_sum   'Ce1 Ti1 O1'
_cell_volume   51.05142137
_cell_formula_units_Z   1
loop_
 _symmetry_equiv_pos_site_id
 _symmetry_equiv_pos_as_xyz
  1  'x, y, z'
loop_
 _atom_site_type_symbol
 _atom_site_label
 _atom_site_symmetry_multiplicity
 _atom_site_fract_x
 _atom_site_fract_y
 _atom_site_fract_z
 _atom_site_occupancy
  Ce  Ce0  1  -0.00000006  0.00000001  0.00000000  1
  Ti  Ti1  1  0.50000001  0.50000002  0.50000000  1
  O  O2  1  0.00000005  0.49999997  0.50000000  1
