# generated using pymatgen
data_CeYSb2
_symmetry_space_group_name_H-M   'P 1'
_cell_length_a   4.45918155
_cell_length_b   4.46088883
_cell_length_c   6.28708896
_cell_angle_alpha   89.97793710
_cell_angle_beta   90.03101573
_cell_angle_gamma   89.99317380
_symmetry_Int_Tables_number   1
_chemical_formula_structural   CeYSb2
_chemical_formula_sum   'Ce1 Y1 Sb2'
_cell_volume   125.06219917
_cell_formula_units_Z   1
loop_
 _symmetry_equiv_pos_site_id
 _symmetry_equiv_pos_as_xyz
  1  'x, y, z'
loop_
 _atom_site_type_symbol
 _atom_site_label
 _atom_site_symmetry_multiplicity
 _atom_site_fract_x
 _atom_site_fract_y
 _atom_site_fract_z
 _atom_site_occupancy
  Ce  Ce0  1  -0.00000000  -0.00000000  0.00000000  1
  Y  Y1  1  0.50000000  0.50000000  0.50000000  1
  Sb  Sb2  1  0.00000000  0.00000000  0.50000000  1
  Sb  Sb3  1  0.50000000  0.50000000  -0.00000000  1
