# generated using pymatgen
data_CoAuS2
_symmetry_space_group_name_H-M   Cm
_cell_length_a   8.97963493
_cell_length_b   3.43411051
_cell_length_c   5.50576825
_cell_angle_alpha   90.00000000
_cell_angle_beta   98.12612100
_cell_angle_gamma   90.00000000
_symmetry_Int_Tables_number   8
_chemical_formula_structural   CoAuS2
_chemical_formula_sum   'Co2 Au2 S4'
_cell_volume   168.07697461
_cell_formula_units_Z   2
loop_
 _symmetry_equiv_pos_site_id
 _symmetry_equiv_pos_as_xyz
  1  'x, y, z'
  2  'x, -y, z'
  3  'x+1/2, y+1/2, z'
  4  'x+1/2, -y+1/2, z'
loop_
 _atom_site_type_symbol
 _atom_site_label
 _atom_site_symmetry_multiplicity
 _atom_site_fract_x
 _atom_site_fract_y
 _atom_site_fract_z
 _atom_site_occupancy
  Co  Co0  2  0.48063468  0.00000000  0.00600976  1
  Au  Au1  2  0.25448024  0.00000000  0.63698340  1
  S  S2  2  0.10757894  0.00000000  0.95949995  1
  S  S3  2  0.32398392  0.00000000  0.24780690  1
