# generated using pymatgen
data_CoF7
_symmetry_space_group_name_H-M   P1
_cell_length_a   4.69129552
_cell_length_b   4.72655616
_cell_length_c   6.03201056
_cell_angle_alpha   88.77212759
_cell_angle_beta   88.45316465
_cell_angle_gamma   61.45383413
_symmetry_Int_Tables_number   1
_chemical_formula_structural   CoF7
_chemical_formula_sum   'Co1 F7'
_cell_volume   117.44357329
_cell_formula_units_Z   1
loop_
 _symmetry_equiv_pos_site_id
 _symmetry_equiv_pos_as_xyz
  1  'x, y, z'
loop_
 _atom_site_type_symbol
 _atom_site_label
 _atom_site_symmetry_multiplicity
 _atom_site_fract_x
 _atom_site_fract_y
 _atom_site_fract_z
 _atom_site_occupancy
  Co  Co0  1  0.92519350  0.01627948  0.04948109  1
  F  F1  1  0.14085981  0.22702299  0.58932678  1
  F  F2  1  0.27730646  0.89654089  0.65560655  1
  F  F3  1  0.30365432  0.97751161  0.10116704  1
  F  F4  1  0.53039176  0.44668684  0.42486291  1
  F  F5  1  0.62948626  0.27899426  0.87176485  1
  F  F6  1  0.69208321  0.10116270  0.36322217  1
  F  F7  1  0.94832467  0.64420123  0.15346862  1
