# generated using pymatgen
data_CoNiCl2
_symmetry_space_group_name_H-M   'P 1'
_cell_length_a   3.65146659
_cell_length_b   3.38372253
_cell_length_c   6.96782803
_cell_angle_alpha   89.99999848
_cell_angle_beta   76.05180961
_cell_angle_gamma   90.00000252
_symmetry_Int_Tables_number   1
_chemical_formula_structural   CoNiCl2
_chemical_formula_sum   'Co1 Ni1 Cl2'
_cell_volume   83.55286422
_cell_formula_units_Z   1
loop_
 _symmetry_equiv_pos_site_id
 _symmetry_equiv_pos_as_xyz
  1  'x, y, z'
loop_
 _atom_site_type_symbol
 _atom_site_label
 _atom_site_symmetry_multiplicity
 _atom_site_fract_x
 _atom_site_fract_y
 _atom_site_fract_z
 _atom_site_occupancy
  Co  Co0  1  -0.08358850  0.00000000  -0.08852710  1
  Ni  Ni1  1  0.35984693  0.50000000  0.00517598  1
  Cl  Cl2  1  0.22028491  0.50000001  0.71170836  1
  Cl  Cl3  1  0.47915666  -0.00000001  0.20274276  1
