# generated using pymatgen
data_CoNiH
_symmetry_space_group_name_H-M   'P 1'
_cell_length_a   2.53717655
_cell_length_b   2.54239291
_cell_length_c   3.87084635
_cell_angle_alpha   89.99999821
_cell_angle_beta   89.99999888
_cell_angle_gamma   90.00000135
_symmetry_Int_Tables_number   1
_chemical_formula_structural   CoNiH
_chemical_formula_sum   'Co1 Ni1 H1'
_cell_volume   24.96889311
_cell_formula_units_Z   1
loop_
 _symmetry_equiv_pos_site_id
 _symmetry_equiv_pos_as_xyz
  1  'x, y, z'
loop_
 _atom_site_type_symbol
 _atom_site_label
 _atom_site_symmetry_multiplicity
 _atom_site_fract_x
 _atom_site_fract_y
 _atom_site_fract_z
 _atom_site_occupancy
  Co  Co0  1  -0.00000004  0.00000001  -0.03432784  1
  Ni  Ni1  1  0.50000003  0.50000001  0.52100966  1
  H  H2  1  0.00000001  0.49999998  0.24801818  1
