# generated using pymatgen
data_CoPdBr2
_symmetry_space_group_name_H-M   'P 1'
_cell_length_a   7.19130432
_cell_length_b   3.61233226
_cell_length_c   8.07837448
_cell_angle_alpha   89.99722751
_cell_angle_beta   151.74585132
_cell_angle_gamma   90.00237564
_symmetry_Int_Tables_number   1
_chemical_formula_structural   CoPdBr2
_chemical_formula_sum   'Co1 Pd1 Br2'
_cell_volume   99.34188769
_cell_formula_units_Z   1
loop_
 _symmetry_equiv_pos_site_id
 _symmetry_equiv_pos_as_xyz
  1  'x, y, z'
loop_
 _atom_site_type_symbol
 _atom_site_label
 _atom_site_symmetry_multiplicity
 _atom_site_fract_x
 _atom_site_fract_y
 _atom_site_fract_z
 _atom_site_occupancy
  Co  Co0  1  0.07708999  0.50002815  0.57814223  1
  Pd  Pd1  1  0.65943067  -0.00000697  0.05882412  1
  Br  Br2  1  0.04454528  -0.00000761  0.75661070  1
  Br  Br3  1  0.17993406  0.49998643  0.36412295  1
