# generated using pymatgen
data_CoSe2
_symmetry_space_group_name_H-M   Cm
_cell_length_a   10.57858623
_cell_length_b   3.64565996
_cell_length_c   3.71824115
_cell_angle_alpha   90.00000000
_cell_angle_beta   100.48368056
_cell_angle_gamma   90.00000000
_symmetry_Int_Tables_number   8
_chemical_formula_structural   CoSe2
_chemical_formula_sum   'Co2 Se4'
_cell_volume   141.00365556
_cell_formula_units_Z   2
loop_
 _symmetry_equiv_pos_site_id
 _symmetry_equiv_pos_as_xyz
  1  'x, y, z'
  2  'x, -y, z'
  3  'x+1/2, y+1/2, z'
  4  'x+1/2, -y+1/2, z'
loop_
 _atom_site_type_symbol
 _atom_site_label
 _atom_site_symmetry_multiplicity
 _atom_site_fract_x
 _atom_site_fract_y
 _atom_site_fract_z
 _atom_site_occupancy
  Co  Co0  2  0.44394803  0.00000000  0.09150102  1
  Se  Se1  2  0.06507253  0.00000000  0.11620138  1
  Se  Se2  2  0.32431473  0.00000000  0.52959760  1
