# generated using pymatgen
data_CoWCl2
_symmetry_space_group_name_H-M   'P 1'
_cell_length_a   3.19588811
_cell_length_b   3.04935352
_cell_length_c   7.88389105
_cell_angle_alpha   89.99999723
_cell_angle_beta   95.85136375
_cell_angle_gamma   89.99999658
_symmetry_Int_Tables_number   1
_chemical_formula_structural   CoWCl2
_chemical_formula_sum   'Co1 W1 Cl2'
_cell_volume   76.43129951
_cell_formula_units_Z   1
loop_
 _symmetry_equiv_pos_site_id
 _symmetry_equiv_pos_as_xyz
  1  'x, y, z'
loop_
 _atom_site_type_symbol
 _atom_site_label
 _atom_site_symmetry_multiplicity
 _atom_site_fract_x
 _atom_site_fract_y
 _atom_site_fract_z
 _atom_site_occupancy
  Co  Co0  1  -0.09546414  0.49999998  0.59613580  1
  W  W1  1  0.36674617  0.00000000  0.44662579  1
  Cl  Cl2  1  0.44487377  -0.00000002  0.76730940  1
  Cl  Cl3  1  0.30784421  0.50000003  0.20722901  1
