# generated using pymatgen
data_CrBrCl2
_symmetry_space_group_name_H-M   'P 1'
_cell_length_a   5.91363692
_cell_length_b   3.50063561
_cell_length_c   6.67477049
_cell_angle_alpha   90.00001398
_cell_angle_beta   116.73089943
_cell_angle_gamma   89.99999632
_symmetry_Int_Tables_number   1
_chemical_formula_structural   CrBrCl2
_chemical_formula_sum   'Cr1 Br1 Cl2'
_cell_volume   123.41048616
_cell_formula_units_Z   1
loop_
 _symmetry_equiv_pos_site_id
 _symmetry_equiv_pos_as_xyz
  1  'x, y, z'
loop_
 _atom_site_type_symbol
 _atom_site_label
 _atom_site_symmetry_multiplicity
 _atom_site_fract_x
 _atom_site_fract_y
 _atom_site_fract_z
 _atom_site_occupancy
  Cr  Cr0  1  0.56028463  -0.00000001  0.55632935  1
  Br  Br1  1  0.63780859  0.49999987  0.32911773  1
  Cl  Cl2  1  0.37425948  0.50000006  0.66582050  1
  Cl  Cl3  1  0.92764730  0.00000007  0.84863242  1
