# generated using pymatgen
data_CrCoP
_symmetry_space_group_name_H-M   'P 1'
_cell_length_a   3.61739865
_cell_length_b   3.82692874
_cell_length_c   2.81604900
_cell_angle_alpha   89.99999844
_cell_angle_beta   90.00000072
_cell_angle_gamma   89.99999769
_symmetry_Int_Tables_number   1
_chemical_formula_structural   CrCoP
_chemical_formula_sum   'Cr1 Co1 P1'
_cell_volume   38.98404996
_cell_formula_units_Z   1
loop_
 _symmetry_equiv_pos_site_id
 _symmetry_equiv_pos_as_xyz
  1  'x, y, z'
loop_
 _atom_site_type_symbol
 _atom_site_label
 _atom_site_symmetry_multiplicity
 _atom_site_fract_x
 _atom_site_fract_y
 _atom_site_fract_z
 _atom_site_occupancy
  Cr  Cr0  1  -0.00000001  0.00000000  0.50000000  1
  Co  Co1  1  0.50000000  0.50000000  0.50000000  1
  P  P2  1  0.00000001  0.50000000  -0.00000000  1
