# generated using pymatgen
data_CrFeSi
_symmetry_space_group_name_H-M   'P 1'
_cell_length_a   3.99179039
_cell_length_b   3.78713784
_cell_length_c   2.79086166
_cell_angle_alpha   89.99998948
_cell_angle_beta   89.99999846
_cell_angle_gamma   89.99999306
_symmetry_Int_Tables_number   1
_chemical_formula_structural   CrFeSi
_chemical_formula_sum   'Cr1 Fe1 Si1'
_cell_volume   42.19074073
_cell_formula_units_Z   1
loop_
 _symmetry_equiv_pos_site_id
 _symmetry_equiv_pos_as_xyz
  1  'x, y, z'
loop_
 _atom_site_type_symbol
 _atom_site_label
 _atom_site_symmetry_multiplicity
 _atom_site_fract_x
 _atom_site_fract_y
 _atom_site_fract_z
 _atom_site_occupancy
  Cr  Cr0  1  0.50000000  0.50000000  0.50000000  1
  Fe  Fe1  1  0.00000000  -0.00000000  0.50000000  1
  Si  Si2  1  -0.00000001  0.50000000  -0.00000000  1
