# generated using pymatgen
data_CrPdBr2
_symmetry_space_group_name_H-M   'P 1'
_cell_length_a   4.92287529
_cell_length_b   3.67382498
_cell_length_c   6.39714190
_cell_angle_alpha   95.40181899
_cell_angle_beta   84.30238348
_cell_angle_gamma   112.33858152
_symmetry_Int_Tables_number   1
_chemical_formula_structural   CrPdBr2
_chemical_formula_sum   'Cr1 Pd1 Br2'
_cell_volume   106.28584434
_cell_formula_units_Z   1
loop_
 _symmetry_equiv_pos_site_id
 _symmetry_equiv_pos_as_xyz
  1  'x, y, z'
loop_
 _atom_site_type_symbol
 _atom_site_label
 _atom_site_symmetry_multiplicity
 _atom_site_fract_x
 _atom_site_fract_y
 _atom_site_fract_z
 _atom_site_occupancy
  Cr  Cr0  1  -0.01522434  0.47426076  0.60475212  1
  Pd  Pd1  1  -0.02200922  0.02545676  -0.09939506  1
  Br  Br2  1  0.03387753  -0.04391872  0.33045834  1
  Br  Br3  1  0.48135602  0.54420120  0.79188460  1
