# generated using pymatgen
data_CrSI
_symmetry_space_group_name_H-M   'P 1'
_cell_length_a   4.04863994
_cell_length_b   4.04863949
_cell_length_c   5.12887605
_cell_angle_alpha   90.00014141
_cell_angle_beta   89.99983246
_cell_angle_gamma   120.00002808
_symmetry_Int_Tables_number   1
_chemical_formula_structural   CrSI
_chemical_formula_sum   'Cr1 S1 I1'
_cell_volume   72.80663761
_cell_formula_units_Z   1
loop_
 _symmetry_equiv_pos_site_id
 _symmetry_equiv_pos_as_xyz
  1  'x, y, z'
loop_
 _atom_site_type_symbol
 _atom_site_label
 _atom_site_symmetry_multiplicity
 _atom_site_fract_x
 _atom_site_fract_y
 _atom_site_fract_z
 _atom_site_occupancy
  Cr  Cr0  1  -0.00000040  0.00000042  -0.00000006  1
  S  S1  1  0.33333358  0.66666637  0.00000002  1
  I  I2  1  0.66666682  0.33333321  0.50000004  1
