# generated using pymatgen
data_Cs2CdO2
_symmetry_space_group_name_H-M   Pmm2
_cell_length_a   3.83224092
_cell_length_b   4.39630879
_cell_length_c   9.66807047
_cell_angle_alpha   90.00000000
_cell_angle_beta   90.00000000
_cell_angle_gamma   90.00000000
_symmetry_Int_Tables_number   25
_chemical_formula_structural   Cs2CdO2
_chemical_formula_sum   'Cs2 Cd1 O2'
_cell_volume   162.88489048
_cell_formula_units_Z   1
loop_
 _symmetry_equiv_pos_site_id
 _symmetry_equiv_pos_as_xyz
  1  'x, y, z'
  2  '-x, -y, z'
  3  '-x, y, z'
  4  'x, -y, z'
loop_
 _atom_site_type_symbol
 _atom_site_label
 _atom_site_symmetry_multiplicity
 _atom_site_fract_x
 _atom_site_fract_y
 _atom_site_fract_z
 _atom_site_occupancy
  Cs  Cs0  1  0.50000000  0.50000000  0.43351554  1
  Cs  Cs1  1  0.50000000  0.50000000  0.99779225  1
  Cd  Cd2  1  0.00000000  0.00000000  0.71146856  1
  O  O3  1  0.00000000  0.00000000  0.49832990  1
  O  O4  1  0.50000000  0.00000000  0.83709375  1
