# generated using pymatgen
data_Cs3F4
_symmetry_space_group_name_H-M   C2
_cell_length_a   8.85647038
_cell_length_b   7.54215729
_cell_length_c   5.44518977
_cell_angle_alpha   90.00000000
_cell_angle_beta   97.65902537
_cell_angle_gamma   90.00000000
_symmetry_Int_Tables_number   5
_chemical_formula_structural   Cs3F4
_chemical_formula_sum   'Cs6 F8'
_cell_volume   360.47690975
_cell_formula_units_Z   2
loop_
 _symmetry_equiv_pos_site_id
 _symmetry_equiv_pos_as_xyz
  1  'x, y, z'
  2  '-x, y, -z'
  3  'x+1/2, y+1/2, z'
  4  '-x+1/2, y+1/2, -z'
loop_
 _atom_site_type_symbol
 _atom_site_label
 _atom_site_symmetry_multiplicity
 _atom_site_fract_x
 _atom_site_fract_y
 _atom_site_fract_z
 _atom_site_occupancy
  Cs  Cs0  4  0.18293186  0.24146400  0.86846219  1
  Cs  Cs1  2  0.00000000  0.71819206  0.50000000  1
  F  F2  4  0.19733800  0.38712218  0.38641909  1
  F  F3  2  0.00000000  0.55531762  0.00000000  1
  F  F4  2  0.00000000  0.94571427  0.00000000  1
