# generated using pymatgen
data_CsCeS2
_symmetry_space_group_name_H-M   'P 1'
_cell_length_a   4.52864671
_cell_length_b   4.53356807
_cell_length_c   6.16907757
_cell_angle_alpha   89.97354794
_cell_angle_beta   90.00164142
_cell_angle_gamma   89.99831410
_symmetry_Int_Tables_number   1
_chemical_formula_structural   CsCeS2
_chemical_formula_sum   'Cs1 Ce1 S2'
_cell_volume   126.65687454
_cell_formula_units_Z   1
loop_
 _symmetry_equiv_pos_site_id
 _symmetry_equiv_pos_as_xyz
  1  'x, y, z'
loop_
 _atom_site_type_symbol
 _atom_site_label
 _atom_site_symmetry_multiplicity
 _atom_site_fract_x
 _atom_site_fract_y
 _atom_site_fract_z
 _atom_site_occupancy
  Cs  Cs0  1  0.50000002  0.50000010  0.50000001  1
  Ce  Ce1  1  -0.00000005  -0.00000020  0.00000018  1
  S  S2  1  0.00000003  0.00000014  0.49999978  1
  S  S3  1  0.50000000  0.49999996  0.00000003  1
