# generated using pymatgen
data_CsCl2
_symmetry_space_group_name_H-M   Amm2
_cell_length_a   5.42738135
_cell_length_b   5.67959208
_cell_length_c   9.38589954
_cell_angle_alpha   90.00000000
_cell_angle_beta   90.00000000
_cell_angle_gamma   90.00000000
_symmetry_Int_Tables_number   38
_chemical_formula_structural   CsCl2
_chemical_formula_sum   'Cs2 Cl4'
_cell_volume   289.32328299
_cell_formula_units_Z   2
loop_
 _symmetry_equiv_pos_site_id
 _symmetry_equiv_pos_as_xyz
  1  'x, y, z'
  2  '-x, -y, z'
  3  '-x, y, z'
  4  'x, -y, z'
  5  'x, y+1/2, z+1/2'
  6  '-x, -y+1/2, z+1/2'
  7  '-x, y+1/2, z+1/2'
  8  'x, -y+1/2, z+1/2'
loop_
 _atom_site_type_symbol
 _atom_site_label
 _atom_site_symmetry_multiplicity
 _atom_site_fract_x
 _atom_site_fract_y
 _atom_site_fract_z
 _atom_site_occupancy
  Cs  Cs0  2  0.50000000  0.00000000  0.60278368  1
  Cl  Cl1  4  0.24588834  0.00000000  0.94419940  1
