# generated using pymatgen
data_CsDyCl
_symmetry_space_group_name_H-M   'P 1'
_cell_length_a   6.50824414
_cell_length_b   6.50368436
_cell_length_c   3.61878610
_cell_angle_alpha   90.02073760
_cell_angle_beta   89.95666808
_cell_angle_gamma   83.73216087
_symmetry_Int_Tables_number   1
_chemical_formula_structural   CsDyCl
_chemical_formula_sum   'Cs1 Dy1 Cl1'
_cell_volume   152.25873131
_cell_formula_units_Z   1
loop_
 _symmetry_equiv_pos_site_id
 _symmetry_equiv_pos_as_xyz
  1  'x, y, z'
loop_
 _atom_site_type_symbol
 _atom_site_label
 _atom_site_symmetry_multiplicity
 _atom_site_fract_x
 _atom_site_fract_y
 _atom_site_fract_z
 _atom_site_occupancy
  Cs  Cs0  1  -0.01306645  -0.01317161  0.00024985  1
  Dy  Dy1  1  0.50132502  0.50145979  -0.00016476  1
  Cl  Cl2  1  0.28944144  0.28941182  0.49991491  1
