# generated using pymatgen
data_CsDySe
_symmetry_space_group_name_H-M   'P 1'
_cell_length_a   4.31913887
_cell_length_b   4.31913612
_cell_length_c   8.57586987
_cell_angle_alpha   90.00000612
_cell_angle_beta   89.99994527
_cell_angle_gamma   119.99999980
_symmetry_Int_Tables_number   1
_chemical_formula_structural   CsDySe
_chemical_formula_sum   'Cs1 Dy1 Se1'
_cell_volume   138.54883366
_cell_formula_units_Z   1
loop_
 _symmetry_equiv_pos_site_id
 _symmetry_equiv_pos_as_xyz
  1  'x, y, z'
loop_
 _atom_site_type_symbol
 _atom_site_label
 _atom_site_symmetry_multiplicity
 _atom_site_fract_x
 _atom_site_fract_y
 _atom_site_fract_z
 _atom_site_occupancy
  Cs  Cs0  1  -0.00000012  0.00000002  -0.05553279  1
  Dy  Dy1  1  0.66666690  0.33333348  0.50886842  1
  Se  Se2  1  -0.00000012  -0.00000017  0.36306437  1
