# generated using pymatgen
data_CsEuTe
_symmetry_space_group_name_H-M   'P 1'
_cell_length_a   4.79049300
_cell_length_b   7.17988097
_cell_length_c   4.40772920
_cell_angle_alpha   89.99110827
_cell_angle_beta   89.99942287
_cell_angle_gamma   89.99870129
_symmetry_Int_Tables_number   1
_chemical_formula_structural   CsEuTe
_chemical_formula_sum   'Cs1 Eu1 Te1'
_cell_volume   151.60459127
_cell_formula_units_Z   1
loop_
 _symmetry_equiv_pos_site_id
 _symmetry_equiv_pos_as_xyz
  1  'x, y, z'
loop_
 _atom_site_type_symbol
 _atom_site_label
 _atom_site_symmetry_multiplicity
 _atom_site_fract_x
 _atom_site_fract_y
 _atom_site_fract_z
 _atom_site_occupancy
  Cs  Cs0  1  -0.00000327  0.00000038  0.00000145  1
  Eu  Eu1  1  0.50000154  0.49999988  -0.00000081  1
  Te  Te2  1  0.00000173  0.49999974  0.49999936  1
