# generated using pymatgen
data_CsHgCl
_symmetry_space_group_name_H-M   'P 1'
_cell_length_a   6.98072164
_cell_length_b   4.87316827
_cell_length_c   4.78088804
_cell_angle_alpha   89.99997741
_cell_angle_beta   89.99999303
_cell_angle_gamma   89.99999954
_symmetry_Int_Tables_number   1
_chemical_formula_structural   CsHgCl
_chemical_formula_sum   'Cs1 Hg1 Cl1'
_cell_volume   162.63735468
_cell_formula_units_Z   1
loop_
 _symmetry_equiv_pos_site_id
 _symmetry_equiv_pos_as_xyz
  1  'x, y, z'
loop_
 _atom_site_type_symbol
 _atom_site_label
 _atom_site_symmetry_multiplicity
 _atom_site_fract_x
 _atom_site_fract_y
 _atom_site_fract_z
 _atom_site_occupancy
  Cs  Cs0  1  0.00000002  -0.00000001  0.49999992  1
  Hg  Hg1  1  0.49999998  0.50000000  0.50000017  1
  Cl  Cl2  1  -0.00000000  0.50000001  -0.00000009  1
