# generated using pymatgen
data_CsNCl
_symmetry_space_group_name_H-M   Cm
_cell_length_a   7.67868857
_cell_length_b   5.06488643
_cell_length_c   4.65612644
_cell_angle_alpha   90.00000000
_cell_angle_beta   102.18586572
_cell_angle_gamma   90.00000000
_symmetry_Int_Tables_number   8
_chemical_formula_structural   CsNCl
_chemical_formula_sum   'Cs2 N2 Cl2'
_cell_volume   177.00440612
_cell_formula_units_Z   2
loop_
 _symmetry_equiv_pos_site_id
 _symmetry_equiv_pos_as_xyz
  1  'x, y, z'
  2  'x, -y, z'
  3  'x+1/2, y+1/2, z'
  4  'x+1/2, -y+1/2, z'
loop_
 _atom_site_type_symbol
 _atom_site_label
 _atom_site_symmetry_multiplicity
 _atom_site_fract_x
 _atom_site_fract_y
 _atom_site_fract_z
 _atom_site_occupancy
  Cs  Cs0  2  0.22827950  0.50000000  0.55573907  1
  N  N1  2  0.35813669  0.00000000  0.22723144  1
  Cl  Cl2  2  0.14235914  0.00000000  0.05522949  1
