# generated using pymatgen
data_CsNF
_symmetry_space_group_name_H-M   P1
_cell_length_a   4.24678271
_cell_length_b   4.40151056
_cell_length_c   4.95841581
_cell_angle_alpha   67.23061334
_cell_angle_beta   79.91324769
_cell_angle_gamma   88.88772582
_symmetry_Int_Tables_number   1
_chemical_formula_structural   CsNF
_chemical_formula_sum   'Cs1 N1 F1'
_cell_volume   84.02069768
_cell_formula_units_Z   1
loop_
 _symmetry_equiv_pos_site_id
 _symmetry_equiv_pos_as_xyz
  1  'x, y, z'
loop_
 _atom_site_type_symbol
 _atom_site_label
 _atom_site_symmetry_multiplicity
 _atom_site_fract_x
 _atom_site_fract_y
 _atom_site_fract_z
 _atom_site_occupancy
  Cs  Cs0  1  0.76614216  0.97693905  0.79208965  1
  N  N1  1  0.25061015  0.44841917  0.86425066  1
  F  F2  1  0.22434769  0.38894178  0.18345969  1
