# generated using pymatgen
data_CsSe3
_symmetry_space_group_name_H-M   Pm
_cell_length_a   6.20484790
_cell_length_b   4.32088724
_cell_length_c   6.22941137
_cell_angle_alpha   90.00000000
_cell_angle_beta   103.96548146
_cell_angle_gamma   90.00000000
_symmetry_Int_Tables_number   6
_chemical_formula_structural   CsSe3
_chemical_formula_sum   'Cs1 Se3'
_cell_volume   162.07661391
_cell_formula_units_Z   1
loop_
 _symmetry_equiv_pos_site_id
 _symmetry_equiv_pos_as_xyz
  1  'x, y, z'
  2  'x, -y, z'
loop_
 _atom_site_type_symbol
 _atom_site_label
 _atom_site_symmetry_multiplicity
 _atom_site_fract_x
 _atom_site_fract_y
 _atom_site_fract_z
 _atom_site_occupancy
  Cs  Cs0  1  0.18733973  0.00000000  0.13715731  1
  Se  Se1  1  0.20203883  0.50000000  0.63808840  1
  Se  Se2  1  0.69378990  0.50000000  0.14206414  1
  Se  Se3  1  0.81833153  0.50000000  0.52349015  1
