# generated using pymatgen
data_Cu2IrCl2
_symmetry_space_group_name_H-M   Cm
_cell_length_a   11.12469343
_cell_length_b   3.07807460
_cell_length_c   8.13183964
_cell_angle_alpha   90.00000000
_cell_angle_beta   131.76272570
_cell_angle_gamma   90.00000000
_symmetry_Int_Tables_number   8
_chemical_formula_structural   Cu2IrCl2
_chemical_formula_sum   'Cu4 Ir2 Cl4'
_cell_volume   207.70268670
_cell_formula_units_Z   2
loop_
 _symmetry_equiv_pos_site_id
 _symmetry_equiv_pos_as_xyz
  1  'x, y, z'
  2  'x, -y, z'
  3  'x+1/2, y+1/2, z'
  4  'x+1/2, -y+1/2, z'
loop_
 _atom_site_type_symbol
 _atom_site_label
 _atom_site_symmetry_multiplicity
 _atom_site_fract_x
 _atom_site_fract_y
 _atom_site_fract_z
 _atom_site_occupancy
  Cu  Cu0  2  0.19755506  0.50000000  0.27679640  1
  Cu  Cu1  2  0.46767028  0.50000000  0.00320135  1
  Ir  Ir2  2  0.06626217  0.50000000  0.86721853  1
  Cl  Cl3  2  0.29287115  0.00000000  0.55780562  1
  Cl  Cl4  2  0.34423120  0.50000000  0.13307810  1
