# generated using pymatgen
data_Cu2Te3S
_symmetry_space_group_name_H-M   Pm
_cell_length_a   4.74587386
_cell_length_b   4.10262844
_cell_length_c   7.82890490
_cell_angle_alpha   90.00000000
_cell_angle_beta   91.37924662
_cell_angle_gamma   90.00000000
_symmetry_Int_Tables_number   6
_chemical_formula_structural   Cu2Te3S
_chemical_formula_sum   'Cu2 Te3 S1'
_cell_volume   152.38897563
_cell_formula_units_Z   1
loop_
 _symmetry_equiv_pos_site_id
 _symmetry_equiv_pos_as_xyz
  1  'x, y, z'
  2  'x, -y, z'
loop_
 _atom_site_type_symbol
 _atom_site_label
 _atom_site_symmetry_multiplicity
 _atom_site_fract_x
 _atom_site_fract_y
 _atom_site_fract_z
 _atom_site_occupancy
  Cu  Cu0  1  0.04755054  0.50000000  0.93135058  1
  Cu  Cu1  1  0.71147900  0.00000000  0.58980477  1
  Te  Te2  1  0.17294226  0.50000000  0.24618380  1
  Te  Te3  1  0.21021776  0.00000000  0.74824132  1
  Te  Te4  1  0.66631814  0.00000000  0.25940947  1
  S  S5  1  0.69629231  0.50000000  0.73471007  1
