# generated using pymatgen
data_CuBiCl
_symmetry_space_group_name_H-M   'P 1'
_cell_length_a   3.38292464
_cell_length_b   3.42097311
_cell_length_c   6.26100406
_cell_angle_alpha   89.99989869
_cell_angle_beta   89.99985994
_cell_angle_gamma   89.99994998
_symmetry_Int_Tables_number   1
_chemical_formula_structural   CuBiCl
_chemical_formula_sum   'Cu1 Bi1 Cl1'
_cell_volume   72.45793774
_cell_formula_units_Z   1
loop_
 _symmetry_equiv_pos_site_id
 _symmetry_equiv_pos_as_xyz
  1  'x, y, z'
loop_
 _atom_site_type_symbol
 _atom_site_label
 _atom_site_symmetry_multiplicity
 _atom_site_fract_x
 _atom_site_fract_y
 _atom_site_fract_z
 _atom_site_occupancy
  Cu  Cu0  1  0.50000002  0.50000012  -0.08515324  1
  Bi  Bi1  1  0.00000013  -0.00000012  0.64656993  1
  Cl  Cl2  1  -0.00000015  0.50000000  0.17188331  1
