# generated using pymatgen
data_CuBr2F
_symmetry_space_group_name_H-M   Pm
_cell_length_a   5.02761614
_cell_length_b   3.44692845
_cell_length_c   5.34263422
_cell_angle_alpha   90.00000000
_cell_angle_beta   95.95223585
_cell_angle_gamma   90.00000000
_symmetry_Int_Tables_number   6
_chemical_formula_structural   CuBr2F
_chemical_formula_sum   'Cu1 Br2 F1'
_cell_volume   92.08779421
_cell_formula_units_Z   1
loop_
 _symmetry_equiv_pos_site_id
 _symmetry_equiv_pos_as_xyz
  1  'x, y, z'
  2  'x, -y, z'
loop_
 _atom_site_type_symbol
 _atom_site_label
 _atom_site_symmetry_multiplicity
 _atom_site_fract_x
 _atom_site_fract_y
 _atom_site_fract_z
 _atom_site_occupancy
  Cu  Cu0  1  0.38306516  0.00000000  0.88627514  1
  Br  Br1  1  0.21556144  0.50000000  0.59998038  1
  Br  Br2  1  0.68387133  0.50000000  0.04783145  1
  F  F3  1  0.10283541  0.00000000  0.13257970  1
