# generated using pymatgen
data_CuIO
_symmetry_space_group_name_H-M   Cm
_cell_length_a   5.30232901
_cell_length_b   3.41939179
_cell_length_c   8.77331709
_cell_angle_alpha   90.00000000
_cell_angle_beta   97.45149337
_cell_angle_gamma   90.00000000
_symmetry_Int_Tables_number   8
_chemical_formula_structural   CuIO
_chemical_formula_sum   'Cu2 I2 O2'
_cell_volume   157.72341683
_cell_formula_units_Z   2
loop_
 _symmetry_equiv_pos_site_id
 _symmetry_equiv_pos_as_xyz
  1  'x, y, z'
  2  'x, -y, z'
  3  'x+1/2, y+1/2, z'
  4  'x+1/2, -y+1/2, z'
loop_
 _atom_site_type_symbol
 _atom_site_label
 _atom_site_symmetry_multiplicity
 _atom_site_fract_x
 _atom_site_fract_y
 _atom_site_fract_z
 _atom_site_occupancy
  Cu  Cu0  2  0.23827336  0.00000000  0.94246426  1
  I  I1  2  0.01038135  0.50000000  0.49307762  1
  O  O2  2  0.38562838  0.50000000  0.94345812  1
