# generated using pymatgen
data_CuPbF2
_symmetry_space_group_name_H-M   'P 1'
_cell_length_a   3.15347309
_cell_length_b   3.84478577
_cell_length_c   5.75085898
_cell_angle_alpha   90.00009790
_cell_angle_beta   90.00001121
_cell_angle_gamma   89.99995890
_symmetry_Int_Tables_number   1
_chemical_formula_structural   CuPbF2
_chemical_formula_sum   'Cu1 Pb1 F2'
_cell_volume   69.72587830
_cell_formula_units_Z   1
loop_
 _symmetry_equiv_pos_site_id
 _symmetry_equiv_pos_as_xyz
  1  'x, y, z'
loop_
 _atom_site_type_symbol
 _atom_site_label
 _atom_site_symmetry_multiplicity
 _atom_site_fract_x
 _atom_site_fract_y
 _atom_site_fract_z
 _atom_site_occupancy
  Cu  Cu0  1  0.00000008  0.00001038  -0.04352766  1
  Pb  Pb1  1  0.49999977  0.50000066  0.53831707  1
  F  F2  1  0.00000009  0.00000104  0.33517492  1
  F  F3  1  0.00000005  0.49998792  -0.02966434  1
