# generated using pymatgen
data_CuRhF2
_symmetry_space_group_name_H-M   'P 1'
_cell_length_a   3.97181514
_cell_length_b   2.76585789
_cell_length_c   5.06937359
_cell_angle_alpha   90.00000099
_cell_angle_beta   109.29776370
_cell_angle_gamma   89.99999896
_symmetry_Int_Tables_number   1
_chemical_formula_structural   CuRhF2
_chemical_formula_sum   'Cu1 Rh1 F2'
_cell_volume   52.56050549
_cell_formula_units_Z   1
loop_
 _symmetry_equiv_pos_site_id
 _symmetry_equiv_pos_as_xyz
  1  'x, y, z'
loop_
 _atom_site_type_symbol
 _atom_site_label
 _atom_site_symmetry_multiplicity
 _atom_site_fract_x
 _atom_site_fract_y
 _atom_site_fract_z
 _atom_site_occupancy
  Cu  Cu0  1  0.61280674  0.50000000  0.41269565  1
  Rh  Rh1  1  -0.11379776  -0.00000000  -0.17211610  1
  F  F2  1  0.08183030  0.50000001  0.20349366  1
  F  F3  1  0.41866073  -0.00000000  0.89992680  1
