# generated using pymatgen
data_CuSbF2
_symmetry_space_group_name_H-M   'P 1'
_cell_length_a   3.51045728
_cell_length_b   3.51046015
_cell_length_c   4.82043163
_cell_angle_alpha   89.99999117
_cell_angle_beta   90.00000580
_cell_angle_gamma   89.99999641
_symmetry_Int_Tables_number   1
_chemical_formula_structural   CuSbF2
_chemical_formula_sum   'Cu1 Sb1 F2'
_cell_volume   59.40372339
_cell_formula_units_Z   1
loop_
 _symmetry_equiv_pos_site_id
 _symmetry_equiv_pos_as_xyz
  1  'x, y, z'
loop_
 _atom_site_type_symbol
 _atom_site_label
 _atom_site_symmetry_multiplicity
 _atom_site_fract_x
 _atom_site_fract_y
 _atom_site_fract_z
 _atom_site_occupancy
  Cu  Cu0  1  0.00000041  -0.00000005  -0.08441873  1
  Sb  Sb1  1  0.50000002  0.50000006  0.64184610  1
  F  F2  1  -0.00000026  -0.00000002  0.31495607  1
  F  F3  1  0.49999983  0.50000001  0.08431656  1
