# generated using pymatgen
data_DyAsW
_symmetry_space_group_name_H-M   Cm
_cell_length_a   10.95986839
_cell_length_b   3.38184102
_cell_length_c   3.30244465
_cell_angle_alpha   90.00000000
_cell_angle_beta   104.18368016
_cell_angle_gamma   90.00000000
_symmetry_Int_Tables_number   8
_chemical_formula_structural   DyAsW
_chemical_formula_sum   'Dy2 As2 W2'
_cell_volume   118.67211672
_cell_formula_units_Z   2
loop_
 _symmetry_equiv_pos_site_id
 _symmetry_equiv_pos_as_xyz
  1  'x, y, z'
  2  'x, -y, z'
  3  'x+1/2, y+1/2, z'
  4  'x+1/2, -y+1/2, z'
loop_
 _atom_site_type_symbol
 _atom_site_label
 _atom_site_symmetry_multiplicity
 _atom_site_fract_x
 _atom_site_fract_y
 _atom_site_fract_z
 _atom_site_occupancy
  Dy  Dy0  2  0.01219477  0.50000000  0.97609102  1
  As  As1  2  0.21252293  0.00000000  0.69869185  1
  W  W2  2  0.31550615  0.50000000  0.28621715  1
