# generated using pymatgen
data_DyAsRh
_symmetry_space_group_name_H-M   P3m1
_cell_length_a   4.56685424
_cell_length_b   4.56685424
_cell_length_c   4.66666317
_cell_angle_alpha   90.00000000
_cell_angle_beta   90.00000000
_cell_angle_gamma   120.00000000
_symmetry_Int_Tables_number   156
_chemical_formula_structural   DyAsRh
_chemical_formula_sum   'Dy1 As1 Rh1'
_cell_volume   84.28909440
_cell_formula_units_Z   1
loop_
 _symmetry_equiv_pos_site_id
 _symmetry_equiv_pos_as_xyz
  1  'x, y, z'
  2  '-y, x-y, z'
  3  '-x+y, -x, z'
  4  '-y, -x, z'
  5  '-x+y, y, z'
  6  'x, x-y, z'
loop_
 _atom_site_type_symbol
 _atom_site_label
 _atom_site_symmetry_multiplicity
 _atom_site_fract_x
 _atom_site_fract_y
 _atom_site_fract_z
 _atom_site_occupancy
  Dy  Dy0  1  0.66666667  0.33333333  0.95267042  1
  As  As1  1  0.00000000  0.00000000  0.27711298  1
  Rh  Rh2  1  0.00000000  0.00000000  0.77021661  1
