# generated using pymatgen
data_DyH2F
_symmetry_space_group_name_H-M   'P 1'
_cell_length_a   3.50107172
_cell_length_b   3.50106559
_cell_length_c   5.20956896
_cell_angle_alpha   89.99874621
_cell_angle_beta   90.00000280
_cell_angle_gamma   120.00008754
_symmetry_Int_Tables_number   1
_chemical_formula_structural   DyH2F
_chemical_formula_sum   'Dy1 H2 F1'
_cell_volume   55.30103948
_cell_formula_units_Z   1
loop_
 _symmetry_equiv_pos_site_id
 _symmetry_equiv_pos_as_xyz
  1  'x, y, z'
loop_
 _atom_site_type_symbol
 _atom_site_label
 _atom_site_symmetry_multiplicity
 _atom_site_fract_x
 _atom_site_fract_y
 _atom_site_fract_z
 _atom_site_occupancy
  Dy  Dy0  1  -0.00000097  -0.00000170  0.10740406  1
  H  H1  1  0.33333757  0.66667500  0.88044753  1
  H  H2  1  0.66666965  0.33333908  0.04806159  1
  F  F3  1  0.33332709  0.66665428  0.34908682  1
