# generated using pymatgen
data_DyLuSb2
_symmetry_space_group_name_H-M   'P 1'
_cell_length_a   4.34579424
_cell_length_b   4.34579211
_cell_length_c   6.15457107
_cell_angle_alpha   90.00005438
_cell_angle_beta   90.00005524
_cell_angle_gamma   90.00002400
_symmetry_Int_Tables_number   1
_chemical_formula_structural   DyLuSb2
_chemical_formula_sum   'Dy1 Lu1 Sb2'
_cell_volume   116.23472652
_cell_formula_units_Z   1
loop_
 _symmetry_equiv_pos_site_id
 _symmetry_equiv_pos_as_xyz
  1  'x, y, z'
loop_
 _atom_site_type_symbol
 _atom_site_label
 _atom_site_symmetry_multiplicity
 _atom_site_fract_x
 _atom_site_fract_y
 _atom_site_fract_z
 _atom_site_occupancy
  Dy  Dy0  1  -0.00000006  -0.00000009  0.00000006  1
  Lu  Lu1  1  0.49999999  0.50000010  0.49999981  1
  Sb  Sb2  1  0.00000003  -0.00000002  0.50000013  1
  Sb  Sb3  1  0.50000004  0.50000002  -0.00000000  1
