# generated using pymatgen
data_DySbMo
_symmetry_space_group_name_H-M   Amm2
_cell_length_a   3.72370279
_cell_length_b   4.49158103
_cell_length_c   8.34128067
_cell_angle_alpha   90.00000000
_cell_angle_beta   90.00000000
_cell_angle_gamma   90.00000000
_symmetry_Int_Tables_number   38
_chemical_formula_structural   DySbMo
_chemical_formula_sum   'Dy2 Sb2 Mo2'
_cell_volume   139.51052846
_cell_formula_units_Z   2
loop_
 _symmetry_equiv_pos_site_id
 _symmetry_equiv_pos_as_xyz
  1  'x, y, z'
  2  '-x, -y, z'
  3  '-x, y, z'
  4  'x, -y, z'
  5  'x, y+1/2, z+1/2'
  6  '-x, -y+1/2, z+1/2'
  7  '-x, y+1/2, z+1/2'
  8  'x, -y+1/2, z+1/2'
loop_
 _atom_site_type_symbol
 _atom_site_label
 _atom_site_symmetry_multiplicity
 _atom_site_fract_x
 _atom_site_fract_y
 _atom_site_fract_z
 _atom_site_occupancy
  Dy  Dy0  2  0.50000000  0.00000000  0.96132295  1
  Sb  Sb1  2  0.00000000  0.00000000  0.63987415  1
  Mo  Mo2  2  0.00000000  0.00000000  0.31724189  1
