# generated using pymatgen
data_Er2AsP
_symmetry_space_group_name_H-M   'P 1'
_cell_length_a   4.02265363
_cell_length_b   4.02265364
_cell_length_c   5.68817094
_cell_angle_alpha   90.00001125
_cell_angle_beta   89.99998253
_cell_angle_gamma   89.99999900
_symmetry_Int_Tables_number   1
_chemical_formula_structural   Er2AsP
_chemical_formula_sum   'Er2 As1 P1'
_cell_volume   92.04451612
_cell_formula_units_Z   1
loop_
 _symmetry_equiv_pos_site_id
 _symmetry_equiv_pos_as_xyz
  1  'x, y, z'
loop_
 _atom_site_type_symbol
 _atom_site_label
 _atom_site_symmetry_multiplicity
 _atom_site_fract_x
 _atom_site_fract_y
 _atom_site_fract_z
 _atom_site_occupancy
  Er  Er0  1  0.00000000  -0.00000021  -0.00000006  1
  Er  Er1  1  0.49999998  0.50000016  0.50000023  1
  As  As2  1  0.00000002  0.00000007  0.49999988  1
  P  P3  1  0.49999999  0.49999998  -0.00000005  1
