# generated using pymatgen
data_ErAlN2
_symmetry_space_group_name_H-M   'P 1'
_cell_length_a   3.23746614
_cell_length_b   3.23746648
_cell_length_c   4.55686866
_cell_angle_alpha   90.00000827
_cell_angle_beta   89.99999677
_cell_angle_gamma   89.99999186
_symmetry_Int_Tables_number   1
_chemical_formula_structural   ErAlN2
_chemical_formula_sum   'Er1 Al1 N2'
_cell_volume   47.76139761
_cell_formula_units_Z   1
loop_
 _symmetry_equiv_pos_site_id
 _symmetry_equiv_pos_as_xyz
  1  'x, y, z'
loop_
 _atom_site_type_symbol
 _atom_site_label
 _atom_site_symmetry_multiplicity
 _atom_site_fract_x
 _atom_site_fract_y
 _atom_site_fract_z
 _atom_site_occupancy
  Er  Er0  1  0.49999952  0.49999961  0.49999987  1
  Al  Al1  1  0.00000013  0.00000019  -0.00000001  1
  N  N2  1  0.00000021  -0.00000007  0.50000021  1
  N  N3  1  0.50000014  0.50000027  -0.00000007  1
