# generated using pymatgen
data_ErCuF2
_symmetry_space_group_name_H-M   'P 1'
_cell_length_a   3.82294737
_cell_length_b   3.69288433
_cell_length_c   4.48830984
_cell_angle_alpha   89.99196482
_cell_angle_beta   102.46087057
_cell_angle_gamma   90.00496017
_symmetry_Int_Tables_number   1
_chemical_formula_structural   ErCuF2
_chemical_formula_sum   'Er1 Cu1 F2'
_cell_volume   61.87197928
_cell_formula_units_Z   1
loop_
 _symmetry_equiv_pos_site_id
 _symmetry_equiv_pos_as_xyz
  1  'x, y, z'
loop_
 _atom_site_type_symbol
 _atom_site_label
 _atom_site_symmetry_multiplicity
 _atom_site_fract_x
 _atom_site_fract_y
 _atom_site_fract_z
 _atom_site_occupancy
  Er  Er0  1  0.36630514  0.49997244  -0.01287911  1
  Cu  Cu1  1  -0.08979513  0.00000863  0.28185321  1
  F  F2  1  -0.46796593  0.50001852  -0.49722202  1
  F  F3  1  0.19745592  0.00000041  0.73494792  1
