# generated using pymatgen
data_ErHgF
_symmetry_space_group_name_H-M   'P 1'
_cell_length_a   3.69426426
_cell_length_b   3.67410388
_cell_length_c   5.70781380
_cell_angle_alpha   89.97898821
_cell_angle_beta   90.00035715
_cell_angle_gamma   90.00237449
_symmetry_Int_Tables_number   1
_chemical_formula_structural   ErHgF
_chemical_formula_sum   'Er1 Hg1 F1'
_cell_volume   77.47278311
_cell_formula_units_Z   1
loop_
 _symmetry_equiv_pos_site_id
 _symmetry_equiv_pos_as_xyz
  1  'x, y, z'
loop_
 _atom_site_type_symbol
 _atom_site_label
 _atom_site_symmetry_multiplicity
 _atom_site_fract_x
 _atom_site_fract_y
 _atom_site_fract_z
 _atom_site_occupancy
  Er  Er0  1  -0.00000086  -0.00005181  -0.05118790  1
  Hg  Hg1  1  0.49999746  0.50009678  0.63944795  1
  F  F2  1  0.00000340  0.49995503  0.14263995  1
