# generated using pymatgen
data_ErHgS2
_symmetry_space_group_name_H-M   'P 1'
_cell_length_a   3.93773486
_cell_length_b   3.93772969
_cell_length_c   5.69497294
_cell_angle_alpha   90.00016754
_cell_angle_beta   89.99999092
_cell_angle_gamma   90.00014783
_symmetry_Int_Tables_number   1
_chemical_formula_structural   ErHgS2
_chemical_formula_sum   'Er1 Hg1 S2'
_cell_volume   88.30474391
_cell_formula_units_Z   1
loop_
 _symmetry_equiv_pos_site_id
 _symmetry_equiv_pos_as_xyz
  1  'x, y, z'
loop_
 _atom_site_type_symbol
 _atom_site_label
 _atom_site_symmetry_multiplicity
 _atom_site_fract_x
 _atom_site_fract_y
 _atom_site_fract_z
 _atom_site_occupancy
  Er  Er0  1  0.00000197  0.00000154  -0.00000149  1
  Hg  Hg1  1  0.49999972  0.49999958  0.50000077  1
  S  S2  1  -0.00000097  -0.00000209  0.49999990  1
  S  S3  1  0.49999929  0.50000097  0.00000082  1
