# generated using pymatgen
data_ErIF
_symmetry_space_group_name_H-M   'P 1'
_cell_length_a   3.82504578
_cell_length_b   4.19161288
_cell_length_c   5.24113261
_cell_angle_alpha   90.00000552
_cell_angle_beta   90.00001185
_cell_angle_gamma   90.00001056
_symmetry_Int_Tables_number   1
_chemical_formula_structural   ErIF
_chemical_formula_sum   'Er1 I1 F1'
_cell_volume   84.03166173
_cell_formula_units_Z   1
loop_
 _symmetry_equiv_pos_site_id
 _symmetry_equiv_pos_as_xyz
  1  'x, y, z'
loop_
 _atom_site_type_symbol
 _atom_site_label
 _atom_site_symmetry_multiplicity
 _atom_site_fract_x
 _atom_site_fract_y
 _atom_site_fract_z
 _atom_site_occupancy
  Er  Er0  1  0.00000003  0.00000074  0.00000006  1
  I  I1  1  0.49999987  0.49999947  0.50000004  1
  F  F2  1  0.00000010  0.49999979  -0.00000010  1
