# generated using pymatgen
data_ErLuSb2
_symmetry_space_group_name_H-M   'P 1'
_cell_length_a   4.33092729
_cell_length_b   4.33092336
_cell_length_c   6.12178029
_cell_angle_alpha   90.00005812
_cell_angle_beta   90.00003705
_cell_angle_gamma   90.00003519
_symmetry_Int_Tables_number   1
_chemical_formula_structural   ErLuSb2
_chemical_formula_sum   'Er1 Lu1 Sb2'
_cell_volume   114.82570747
_cell_formula_units_Z   1
loop_
 _symmetry_equiv_pos_site_id
 _symmetry_equiv_pos_as_xyz
  1  'x, y, z'
loop_
 _atom_site_type_symbol
 _atom_site_label
 _atom_site_symmetry_multiplicity
 _atom_site_fract_x
 _atom_site_fract_y
 _atom_site_fract_z
 _atom_site_occupancy
  Er  Er0  1  0.00000097  -0.00000081  -0.00000002  1
  Lu  Lu1  1  0.49999983  0.49999991  0.50000005  1
  Sb  Sb2  1  -0.00000047  0.00000047  0.49999998  1
  Sb  Sb3  1  0.49999967  0.50000043  -0.00000001  1
