# generated using pymatgen
data_ErSeBr
_symmetry_space_group_name_H-M   'P 1'
_cell_length_a   4.01308867
_cell_length_b   4.01308835
_cell_length_c   5.55174319
_cell_angle_alpha   90.00002083
_cell_angle_beta   90.00001327
_cell_angle_gamma   90.00000243
_symmetry_Int_Tables_number   1
_chemical_formula_structural   ErSeBr
_chemical_formula_sum   'Er1 Se1 Br1'
_cell_volume   89.41015447
_cell_formula_units_Z   1
loop_
 _symmetry_equiv_pos_site_id
 _symmetry_equiv_pos_as_xyz
  1  'x, y, z'
loop_
 _atom_site_type_symbol
 _atom_site_label
 _atom_site_symmetry_multiplicity
 _atom_site_fract_x
 _atom_site_fract_y
 _atom_site_fract_z
 _atom_site_occupancy
  Er  Er0  1  -0.00000065  0.00000008  -0.00000028  1
  Se  Se1  1  0.50000031  0.49999994  0.00000022  1
  Br  Br2  1  0.00000035  -0.00000002  0.50000006  1
