# generated using pymatgen
data_Eu2AsCl
_symmetry_space_group_name_H-M   'P 1'
_cell_length_a   4.30300595
_cell_length_b   4.30300947
_cell_length_c   6.00762686
_cell_angle_alpha   90.00004543
_cell_angle_beta   89.99998745
_cell_angle_gamma   89.99996139
_symmetry_Int_Tables_number   1
_chemical_formula_structural   Eu2AsCl
_chemical_formula_sum   'Eu2 As1 Cl1'
_cell_volume   111.23647010
_cell_formula_units_Z   1
loop_
 _symmetry_equiv_pos_site_id
 _symmetry_equiv_pos_as_xyz
  1  'x, y, z'
loop_
 _atom_site_type_symbol
 _atom_site_label
 _atom_site_symmetry_multiplicity
 _atom_site_fract_x
 _atom_site_fract_y
 _atom_site_fract_z
 _atom_site_occupancy
  Eu  Eu0  1  -0.00000004  0.00000012  0.50000004  1
  Eu  Eu1  1  0.49999996  0.49999981  -0.00000003  1
  As  As2  1  0.00000004  -0.00000003  -0.00000000  1
  Cl  Cl3  1  0.50000003  0.50000010  0.49999999  1
