# generated using pymatgen
data_EuAgSe
_symmetry_space_group_name_H-M   'P 1'
_cell_length_a   4.19384232
_cell_length_b   4.19384191
_cell_length_c   6.47035718
_cell_angle_alpha   89.99996705
_cell_angle_beta   90.00002892
_cell_angle_gamma   120.00010321
_symmetry_Int_Tables_number   1
_chemical_formula_structural   EuAgSe
_chemical_formula_sum   'Eu1 Ag1 Se1'
_cell_volume   98.55589114
_cell_formula_units_Z   1
loop_
 _symmetry_equiv_pos_site_id
 _symmetry_equiv_pos_as_xyz
  1  'x, y, z'
loop_
 _atom_site_type_symbol
 _atom_site_label
 _atom_site_symmetry_multiplicity
 _atom_site_fract_x
 _atom_site_fract_y
 _atom_site_fract_z
 _atom_site_occupancy
  Eu  Eu0  1  0.00000005  -0.00000009  0.00075159  1
  Ag  Ag1  1  0.00000001  -0.00000002  0.50595603  1
  Se  Se2  1  0.33333327  0.66666677  0.25719238  1
