# generated using pymatgen
data_EuAsAu
_symmetry_space_group_name_H-M   'P 1'
_cell_length_a   4.44730943
_cell_length_b   4.44730992
_cell_length_c   4.24787478
_cell_angle_alpha   89.99996397
_cell_angle_beta   90.00004731
_cell_angle_gamma   120.00001312
_symmetry_Int_Tables_number   1
_chemical_formula_structural   EuAsAu
_chemical_formula_sum   'Eu1 As1 Au1'
_cell_volume   72.76072585
_cell_formula_units_Z   1
loop_
 _symmetry_equiv_pos_site_id
 _symmetry_equiv_pos_as_xyz
  1  'x, y, z'
loop_
 _atom_site_type_symbol
 _atom_site_label
 _atom_site_symmetry_multiplicity
 _atom_site_fract_x
 _atom_site_fract_y
 _atom_site_fract_z
 _atom_site_occupancy
  Eu  Eu0  1  0.33333333  0.66666666  -0.07859254  1
  As  As1  1  0.66666671  0.33333336  0.40509283  1
  Au  Au2  1  -0.00000004  -0.00000002  0.43559972  1
