# generated using pymatgen
data_EuDyAs2
_symmetry_space_group_name_H-M   'P 1'
_cell_length_a   4.18695114
_cell_length_b   4.18695219
_cell_length_c   5.91810884
_cell_angle_alpha   89.99997568
_cell_angle_beta   90.00000625
_cell_angle_gamma   90.00000192
_symmetry_Int_Tables_number   1
_chemical_formula_structural   EuDyAs2
_chemical_formula_sum   'Eu1 Dy1 As2'
_cell_volume   103.74778723
_cell_formula_units_Z   1
loop_
 _symmetry_equiv_pos_site_id
 _symmetry_equiv_pos_as_xyz
  1  'x, y, z'
loop_
 _atom_site_type_symbol
 _atom_site_label
 _atom_site_symmetry_multiplicity
 _atom_site_fract_x
 _atom_site_fract_y
 _atom_site_fract_z
 _atom_site_occupancy
  Eu  Eu0  1  0.49999998  0.49999998  0.00000003  1
  Dy  Dy1  1  0.00000000  -0.00000000  0.49999999  1
  As  As2  1  0.00000001  0.00000001  -0.00000003  1
  As  As3  1  0.50000001  0.50000001  0.50000000  1
