# generated using pymatgen
data_EuHBr2
_symmetry_space_group_name_H-M   'P 1'
_cell_length_a   4.45325641
_cell_length_b   4.45325323
_cell_length_c   5.85941427
_cell_angle_alpha   90.00000168
_cell_angle_beta   90.00007251
_cell_angle_gamma   90.00000566
_symmetry_Int_Tables_number   1
_chemical_formula_structural   EuHBr2
_chemical_formula_sum   'Eu1 H1 Br2'
_cell_volume   116.20084807
_cell_formula_units_Z   1
loop_
 _symmetry_equiv_pos_site_id
 _symmetry_equiv_pos_as_xyz
  1  'x, y, z'
loop_
 _atom_site_type_symbol
 _atom_site_label
 _atom_site_symmetry_multiplicity
 _atom_site_fract_x
 _atom_site_fract_y
 _atom_site_fract_z
 _atom_site_occupancy
  Eu  Eu0  1  0.49999995  0.50000002  0.49999994  1
  H  H1  1  0.00000002  0.00000000  0.00000001  1
  Br  Br2  1  -0.00000002  0.00000003  0.50000002  1
  Br  Br3  1  0.50000005  0.49999995  0.00000003  1
