# generated using pymatgen
data_EuPbS2
_symmetry_space_group_name_H-M   'P 1'
_cell_length_a   4.21832650
_cell_length_b   4.21832682
_cell_length_c   5.95313369
_cell_angle_alpha   90.00000089
_cell_angle_beta   89.99999795
_cell_angle_gamma   89.99998017
_symmetry_Int_Tables_number   1
_chemical_formula_structural   EuPbS2
_chemical_formula_sum   'Eu1 Pb1 S2'
_cell_volume   105.93172663
_cell_formula_units_Z   1
loop_
 _symmetry_equiv_pos_site_id
 _symmetry_equiv_pos_as_xyz
  1  'x, y, z'
loop_
 _atom_site_type_symbol
 _atom_site_label
 _atom_site_symmetry_multiplicity
 _atom_site_fract_x
 _atom_site_fract_y
 _atom_site_fract_z
 _atom_site_occupancy
  Eu  Eu0  1  -0.00000011  -0.00000003  0.00000000  1
  Pb  Pb1  1  0.50000004  0.49999997  0.50000000  1
  S  S2  1  -0.00000006  -0.00000002  0.50000001  1
  S  S3  1  0.50000013  0.50000008  -0.00000002  1
