# generated using pymatgen
data_EuSeBr
_symmetry_space_group_name_H-M   'P 1'
_cell_length_a   4.92667435
_cell_length_b   4.92667442
_cell_length_c   4.69717016
_cell_angle_alpha   89.99999715
_cell_angle_beta   90.00000071
_cell_angle_gamma   120.00004699
_symmetry_Int_Tables_number   1
_chemical_formula_structural   EuSeBr
_chemical_formula_sum   'Eu1 Se1 Br1'
_cell_volume   98.73575203
_cell_formula_units_Z   1
loop_
 _symmetry_equiv_pos_site_id
 _symmetry_equiv_pos_as_xyz
  1  'x, y, z'
loop_
 _atom_site_type_symbol
 _atom_site_label
 _atom_site_symmetry_multiplicity
 _atom_site_fract_x
 _atom_site_fract_y
 _atom_site_fract_z
 _atom_site_occupancy
  Eu  Eu0  1  -0.00000003  -0.00000010  -0.00000002  1
  Se  Se1  1  0.33333337  0.66666673  0.00000002  1
  Br  Br2  1  0.66666666  0.33333336  0.50000000  1
