# generated using pymatgen
data_EuSiH2
_symmetry_space_group_name_H-M   'P 1'
_cell_length_a   3.39281032
_cell_length_b   3.39282107
_cell_length_c   4.42519892
_cell_angle_alpha   89.99995680
_cell_angle_beta   90.00001487
_cell_angle_gamma   90.00011686
_symmetry_Int_Tables_number   1
_chemical_formula_structural   EuSiH2
_chemical_formula_sum   'Eu1 Si1 H2'
_cell_volume   50.93934246
_cell_formula_units_Z   1
loop_
 _symmetry_equiv_pos_site_id
 _symmetry_equiv_pos_as_xyz
  1  'x, y, z'
loop_
 _atom_site_type_symbol
 _atom_site_label
 _atom_site_symmetry_multiplicity
 _atom_site_fract_x
 _atom_site_fract_y
 _atom_site_fract_z
 _atom_site_occupancy
  Eu  Eu0  1  0.00000033  0.00000031  -0.00000010  1
  Si  Si1  1  0.50000019  0.50000000  0.50000005  1
  H  H2  1  -0.00000042  -0.00000017  0.49999983  1
  H  H3  1  0.49999990  0.49999986  0.00000022  1
