# generated using pymatgen
data_EuTeI
_symmetry_space_group_name_H-M   'P 1'
_cell_length_a   5.80531064
_cell_length_b   5.80528513
_cell_length_c   5.74456223
_cell_angle_alpha   89.99974347
_cell_angle_beta   90.00067496
_cell_angle_gamma   119.99944849
_symmetry_Int_Tables_number   1
_chemical_formula_structural   EuTeI
_chemical_formula_sum   'Eu1 Te1 I1'
_cell_volume   167.66368328
_cell_formula_units_Z   1
loop_
 _symmetry_equiv_pos_site_id
 _symmetry_equiv_pos_as_xyz
  1  'x, y, z'
loop_
 _atom_site_type_symbol
 _atom_site_label
 _atom_site_symmetry_multiplicity
 _atom_site_fract_x
 _atom_site_fract_y
 _atom_site_fract_z
 _atom_site_occupancy
  Eu  Eu0  1  -0.00000585  -0.00000151  -0.00000087  1
  Te  Te1  1  0.33333603  0.66666811  0.00000069  1
  I  I2  1  0.66666982  0.33333340  0.00000019  1
