# generated using pymatgen
data_FeAsSe2
_symmetry_space_group_name_H-M   'P 1'
_cell_length_a   4.41354788
_cell_length_b   3.57642555
_cell_length_c   5.31203277
_cell_angle_alpha   90.00013081
_cell_angle_beta   107.18880996
_cell_angle_gamma   89.99969176
_symmetry_Int_Tables_number   1
_chemical_formula_structural   FeAsSe2
_chemical_formula_sum   'Fe1 As1 Se2'
_cell_volume   80.10395592
_cell_formula_units_Z   1
loop_
 _symmetry_equiv_pos_site_id
 _symmetry_equiv_pos_as_xyz
  1  'x, y, z'
loop_
 _atom_site_type_symbol
 _atom_site_label
 _atom_site_symmetry_multiplicity
 _atom_site_fract_x
 _atom_site_fract_y
 _atom_site_fract_z
 _atom_site_occupancy
  Fe  Fe0  1  0.58945756  0.49999991  0.56875039  1
  As  As1  1  -0.20137888  -0.00000014  -0.09062110  1
  Se  Se2  1  0.15807630  0.50000029  0.72557213  1
  Se  Se3  1  0.48184502  -0.00000006  0.28399858  1
