# generated using pymatgen
data_FeCoCl2
_symmetry_space_group_name_H-M   'P 1'
_cell_length_a   4.41263349
_cell_length_b   3.49429045
_cell_length_c   4.68635963
_cell_angle_alpha   90.01470562
_cell_angle_beta   86.68041958
_cell_angle_gamma   89.99917616
_symmetry_Int_Tables_number   1
_chemical_formula_structural   FeCoCl2
_chemical_formula_sum   'Fe1 Co1 Cl2'
_cell_volume   72.13784020
_cell_formula_units_Z   1
loop_
 _symmetry_equiv_pos_site_id
 _symmetry_equiv_pos_as_xyz
  1  'x, y, z'
loop_
 _atom_site_type_symbol
 _atom_site_label
 _atom_site_symmetry_multiplicity
 _atom_site_fract_x
 _atom_site_fract_y
 _atom_site_fract_z
 _atom_site_occupancy
  Fe  Fe0  1  0.58125086  0.50011300  0.56594853  1
  Co  Co1  1  -0.24334668  -0.00025714  -0.20111167  1
  Cl  Cl2  1  0.09820308  0.50003941  0.71236385  1
  Cl  Cl3  1  0.54959274  0.00010473  0.22949930  1
