# generated using pymatgen
data_Ga2Si3Te3Se
_symmetry_space_group_name_H-M   P3m1
_cell_length_a   3.79964772
_cell_length_b   3.79964772
_cell_length_c   18.88322894
_cell_angle_alpha   90.00000000
_cell_angle_beta   90.00000000
_cell_angle_gamma   120.00000000
_symmetry_Int_Tables_number   156
_chemical_formula_structural   Ga2Si3Te3Se
_chemical_formula_sum   'Ga2 Si3 Te3 Se1'
_cell_volume   236.09867837
_cell_formula_units_Z   1
loop_
 _symmetry_equiv_pos_site_id
 _symmetry_equiv_pos_as_xyz
  1  'x, y, z'
  2  '-y, x-y, z'
  3  '-x+y, -x, z'
  4  '-y, -x, z'
  5  '-x+y, y, z'
  6  'x, x-y, z'
loop_
 _atom_site_type_symbol
 _atom_site_label
 _atom_site_symmetry_multiplicity
 _atom_site_fract_x
 _atom_site_fract_y
 _atom_site_fract_z
 _atom_site_occupancy
  Ga  Ga0  1  0.00000000  0.00000000  0.75250618  1
  Ga  Ga1  1  0.33333333  0.66666667  0.23491727  1
  Si  Si2  1  0.00000000  0.00000000  0.46843840  1
  Si  Si3  1  0.33333333  0.66666667  0.54734434  1
  Si  Si4  1  0.66666667  0.33333333  0.99538620  1
  Te  Te5  1  0.00000000  0.00000000  0.90982595  1
  Te  Te6  1  0.33333333  0.66666667  0.08101054  1
  Te  Te7  1  0.66666667  0.33333333  0.38490030  1
  Se  Se8  1  0.66666667  0.33333333  0.61897081  1
