# generated using pymatgen
data_GaAuF
_symmetry_space_group_name_H-M   'P 1'
_cell_length_a   2.76836978
_cell_length_b   4.33461590
_cell_length_c   4.79051856
_cell_angle_alpha   90.00006778
_cell_angle_beta   89.99996935
_cell_angle_gamma   89.99856431
_symmetry_Int_Tables_number   1
_chemical_formula_structural   GaAuF
_chemical_formula_sum   'Ga1 Au1 F1'
_cell_volume   57.48535882
_cell_formula_units_Z   1
loop_
 _symmetry_equiv_pos_site_id
 _symmetry_equiv_pos_as_xyz
  1  'x, y, z'
loop_
 _atom_site_type_symbol
 _atom_site_label
 _atom_site_symmetry_multiplicity
 _atom_site_fract_x
 _atom_site_fract_y
 _atom_site_fract_z
 _atom_site_occupancy
  Ga  Ga0  1  0.49999977  0.49999917  -0.14379001  1
  Au  Au1  1  -0.00000378  -0.00000030  0.70436587  1
  F  F2  1  0.00000401  0.50000113  0.16972415  1
