# generated using pymatgen
data_GaCl3
_symmetry_space_group_name_H-M   P1
_cell_length_a   3.68901223
_cell_length_b   6.66901047
_cell_length_c   7.20169065
_cell_angle_alpha   68.94937790
_cell_angle_beta   75.75219229
_cell_angle_gamma   87.72636580
_symmetry_Int_Tables_number   1
_chemical_formula_structural   GaCl3
_chemical_formula_sum   'Ga1 Cl3'
_cell_volume   160.03336640
_cell_formula_units_Z   1
loop_
 _symmetry_equiv_pos_site_id
 _symmetry_equiv_pos_as_xyz
  1  'x, y, z'
loop_
 _atom_site_type_symbol
 _atom_site_label
 _atom_site_symmetry_multiplicity
 _atom_site_fract_x
 _atom_site_fract_y
 _atom_site_fract_z
 _atom_site_occupancy
  Ga  Ga0  1  0.75232603  0.27446569  0.26534210  1
  Cl  Cl1  1  0.32652523  0.47301973  0.08041128  1
  Cl  Cl2  1  0.61907244  0.30430221  0.55843824  1
  Cl  Cl3  1  0.78497630  0.97401237  0.22270838  1
