# generated using pymatgen
data_GaHF
_symmetry_space_group_name_H-M   'P 1'
_cell_length_a   2.72817274
_cell_length_b   3.08872419
_cell_length_c   4.30442014
_cell_angle_alpha   89.99909823
_cell_angle_beta   89.99921835
_cell_angle_gamma   89.85431767
_symmetry_Int_Tables_number   1
_chemical_formula_structural   GaHF
_chemical_formula_sum   'Ga1 H1 F1'
_cell_volume   36.27139393
_cell_formula_units_Z   1
loop_
 _symmetry_equiv_pos_site_id
 _symmetry_equiv_pos_as_xyz
  1  'x, y, z'
loop_
 _atom_site_type_symbol
 _atom_site_label
 _atom_site_symmetry_multiplicity
 _atom_site_fract_x
 _atom_site_fract_y
 _atom_site_fract_z
 _atom_site_occupancy
  Ga  Ga0  1  0.49999014  0.49999645  0.66675014  1
  H  H1  1  0.00001209  -0.00000335  -0.23036668  1
  F  F2  1  -0.00000223  0.50000690  0.30791655  1
