# generated using pymatgen
data_GaMoSe3
_symmetry_space_group_name_H-M   Pm
_cell_length_a   7.49743694
_cell_length_b   3.36019788
_cell_length_c   10.65100703
_cell_angle_alpha   90.00000000
_cell_angle_beta   105.81906625
_cell_angle_gamma   90.00000000
_symmetry_Int_Tables_number   6
_chemical_formula_structural   GaMoSe3
_chemical_formula_sum   'Ga2 Mo2 Se6'
_cell_volume   258.16710161
_cell_formula_units_Z   2
loop_
 _symmetry_equiv_pos_site_id
 _symmetry_equiv_pos_as_xyz
  1  'x, y, z'
  2  'x, -y, z'
loop_
 _atom_site_type_symbol
 _atom_site_label
 _atom_site_symmetry_multiplicity
 _atom_site_fract_x
 _atom_site_fract_y
 _atom_site_fract_z
 _atom_site_occupancy
  Ga  Ga0  1  0.36908673  0.00000000  0.42599776  1
  Ga  Ga1  1  0.37257128  0.50000000  0.21406510  1
  Mo  Mo2  1  0.36993265  0.50000000  0.64436496  1
  Mo  Mo3  1  0.37121262  0.50000000  0.89854789  1
  Se  Se4  1  0.11516938  0.50000000  0.42579061  1
  Se  Se5  1  0.12668229  0.50000000  0.00739292  1
  Se  Se6  1  0.15414186  0.00000000  0.72397238  1
  Se  Se7  1  0.58684699  0.00000000  0.80616512  1
  Se  Se8  1  0.61660406  0.50000000  0.10074565  1
  Se  Se9  1  0.62415214  0.50000000  0.52305761  1
