# generated using pymatgen
data_GaSCl
_symmetry_space_group_name_H-M   'P 1'
_cell_length_a   3.56044287
_cell_length_b   3.56044479
_cell_length_c   6.41049363
_cell_angle_alpha   89.99938023
_cell_angle_beta   90.00069122
_cell_angle_gamma   120.00052692
_symmetry_Int_Tables_number   1
_chemical_formula_structural   GaSCl
_chemical_formula_sum   'Ga1 S1 Cl1'
_cell_volume   70.37656669
_cell_formula_units_Z   1
loop_
 _symmetry_equiv_pos_site_id
 _symmetry_equiv_pos_as_xyz
  1  'x, y, z'
loop_
 _atom_site_type_symbol
 _atom_site_label
 _atom_site_symmetry_multiplicity
 _atom_site_fract_x
 _atom_site_fract_y
 _atom_site_fract_z
 _atom_site_occupancy
  Ga  Ga0  1  0.66666335  0.33333673  0.39320473  1
  S  S1  1  0.33333364  0.66666629  0.56996760  1
  Cl  Cl2  1  0.00000302  -0.00000303  0.13682767  1
