# generated using pymatgen
data_GaSeBr
_symmetry_space_group_name_H-M   'P 1'
_cell_length_a   3.75760344
_cell_length_b   3.75763329
_cell_length_c   6.78263812
_cell_angle_alpha   89.99996266
_cell_angle_beta   90.00088576
_cell_angle_gamma   120.00030839
_symmetry_Int_Tables_number   1
_chemical_formula_structural   GaSeBr
_chemical_formula_sum   'Ga1 Se1 Br1'
_cell_volume   82.93794454
_cell_formula_units_Z   1
loop_
 _symmetry_equiv_pos_site_id
 _symmetry_equiv_pos_as_xyz
  1  'x, y, z'
loop_
 _atom_site_type_symbol
 _atom_site_label
 _atom_site_symmetry_multiplicity
 _atom_site_fract_x
 _atom_site_fract_y
 _atom_site_fract_z
 _atom_site_occupancy
  Ga  Ga0  1  0.66665952  0.33333000  0.35981570  1
  Se  Se1  1  0.33333443  0.66666717  0.54193809  1
  Br  Br2  1  0.00000604  0.00000283  0.09824621  1
