# generated using pymatgen
data_GaSn2Se2Cl
_symmetry_space_group_name_H-M   P1
_cell_length_a   5.99840089
_cell_length_b   7.79626164
_cell_length_c   8.41508830
_cell_angle_alpha   92.12944667
_cell_angle_beta   93.47235465
_cell_angle_gamma   91.16476868
_symmetry_Int_Tables_number   1
_chemical_formula_structural   GaSn2Se2Cl
_chemical_formula_sum   'Ga2 Sn4 Se4 Cl2'
_cell_volume   392.43816128
_cell_formula_units_Z   2
loop_
 _symmetry_equiv_pos_site_id
 _symmetry_equiv_pos_as_xyz
  1  'x, y, z'
loop_
 _atom_site_type_symbol
 _atom_site_label
 _atom_site_symmetry_multiplicity
 _atom_site_fract_x
 _atom_site_fract_y
 _atom_site_fract_z
 _atom_site_occupancy
  Ga  Ga0  1  0.46308612  0.10944685  0.93054543  1
  Ga  Ga1  1  0.50313646  0.02874703  0.21809216  1
  Sn  Sn2  1  0.26277400  0.80350947  0.81598774  1
  Sn  Sn3  1  0.40029276  0.45473532  0.54452402  1
  Sn  Sn4  1  0.79503158  0.61699953  0.12397587  1
  Sn  Sn5  1  0.84903632  0.17390820  0.58573014  1
  Se  Se6  1  0.35259180  0.72317306  0.12898088  1
  Se  Se7  1  0.40622647  0.08926470  0.49643310  1
  Se  Se8  1  0.63536658  0.37170027  0.83605432  1
  Se  Se9  1  0.81557098  0.48589352  0.42994259  1
  Cl  Cl10  1  0.81920426  0.88639606  0.84848048  1
  Cl  Cl11  1  0.88738265  0.94952598  0.28335328  1
