# generated using pymatgen
data_GdAsSe4
_symmetry_space_group_name_H-M   'P 1'
_cell_length_a   6.27009781
_cell_length_b   5.69238424
_cell_length_c   5.86279436
_cell_angle_alpha   96.53536835
_cell_angle_beta   90.75722146
_cell_angle_gamma   79.31034851
_symmetry_Int_Tables_number   1
_chemical_formula_structural   GdAsSe4
_chemical_formula_sum   'Gd1 As1 Se4'
_cell_volume   204.27953506
_cell_formula_units_Z   1
loop_
 _symmetry_equiv_pos_site_id
 _symmetry_equiv_pos_as_xyz
  1  'x, y, z'
loop_
 _atom_site_type_symbol
 _atom_site_label
 _atom_site_symmetry_multiplicity
 _atom_site_fract_x
 _atom_site_fract_y
 _atom_site_fract_z
 _atom_site_occupancy
  Gd  Gd0  1  0.30744752  0.88667667  0.07622107  1
  As  As1  1  0.59355433  0.18288321  0.75558922  1
  Se  Se2  1  0.37685521  0.37161912  0.09467010  1
  Se  Se3  1  0.35549089  -0.08305711  0.59276643  1
  Se  Se4  1  0.79623689  0.83168237  0.94698992  1
  Se  Se5  1  0.91731517  0.98389575  0.31156326  1
