# generated using pymatgen
data_GdClF
_symmetry_space_group_name_H-M   Pmm2
_cell_length_a   3.82864639
_cell_length_b   4.42307336
_cell_length_c   5.38206447
_cell_angle_alpha   90.00000000
_cell_angle_beta   90.00000000
_cell_angle_gamma   90.00000000
_symmetry_Int_Tables_number   25
_chemical_formula_structural   GdClF
_chemical_formula_sum   'Gd1 Cl1 F1'
_cell_volume   91.14194575
_cell_formula_units_Z   1
loop_
 _symmetry_equiv_pos_site_id
 _symmetry_equiv_pos_as_xyz
  1  'x, y, z'
  2  '-x, -y, z'
  3  '-x, y, z'
  4  'x, -y, z'
loop_
 _atom_site_type_symbol
 _atom_site_label
 _atom_site_symmetry_multiplicity
 _atom_site_fract_x
 _atom_site_fract_y
 _atom_site_fract_z
 _atom_site_occupancy
  Gd  Gd0  1  0.50000000  0.00000000  0.87758458  1
  Cl  Cl1  1  0.50000000  0.00000000  0.37889475  1
  F  F2  1  0.50000000  0.50000000  0.88722067  1
