# generated using pymatgen
data_Ge2AsF
_symmetry_space_group_name_H-M   'P 1'
_cell_length_a   3.92043105
_cell_length_b   3.92038537
_cell_length_c   6.70189539
_cell_angle_alpha   90.00010106
_cell_angle_beta   90.00289207
_cell_angle_gamma   120.00047187
_symmetry_Int_Tables_number   1
_chemical_formula_structural   Ge2AsF
_chemical_formula_sum   'Ge2 As1 F1'
_cell_volume   89.20491651
_cell_formula_units_Z   1
loop_
 _symmetry_equiv_pos_site_id
 _symmetry_equiv_pos_as_xyz
  1  'x, y, z'
loop_
 _atom_site_type_symbol
 _atom_site_label
 _atom_site_symmetry_multiplicity
 _atom_site_fract_x
 _atom_site_fract_y
 _atom_site_fract_z
 _atom_site_occupancy
  Ge  Ge0  1  0.00006326  0.00008517  0.63966405  1
  Ge  Ge1  1  0.33337283  0.66668939  0.18821190  1
  As  As2  1  0.00002083  0.00001122  0.01319239  1
  F  F3  1  0.33320974  0.66654755  0.65893166  1
