# generated using pymatgen
data_Ge2Te3S
_symmetry_space_group_name_H-M   Pm
_cell_length_a   6.10878542
_cell_length_b   3.99742440
_cell_length_c   8.15987774
_cell_angle_alpha   90.00000000
_cell_angle_beta   107.77666733
_cell_angle_gamma   90.00000000
_symmetry_Int_Tables_number   6
_chemical_formula_structural   Ge2Te3S
_chemical_formula_sum   'Ge2 Te3 S1'
_cell_volume   189.74550508
_cell_formula_units_Z   1
loop_
 _symmetry_equiv_pos_site_id
 _symmetry_equiv_pos_as_xyz
  1  'x, y, z'
  2  'x, -y, z'
loop_
 _atom_site_type_symbol
 _atom_site_label
 _atom_site_symmetry_multiplicity
 _atom_site_fract_x
 _atom_site_fract_y
 _atom_site_fract_z
 _atom_site_occupancy
  Ge  Ge0  1  0.26288849  0.50000000  0.90580227  1
  Ge  Ge1  1  0.99010801  0.00000000  0.15860838  1
  Te  Te2  1  0.13294476  0.50000000  0.41566352  1
  Te  Te3  1  0.78079540  0.50000000  0.83637931  1
  Te  Te4  1  0.89453089  0.00000000  0.60380294  1
  S  S5  1  0.34923246  0.00000000  0.10604358  1
