# generated using pymatgen
data_GeBrF
_symmetry_space_group_name_H-M   'P 1'
_cell_length_a   3.99498772
_cell_length_b   3.99498672
_cell_length_c   5.87537611
_cell_angle_alpha   90.00036230
_cell_angle_beta   89.99964031
_cell_angle_gamma   120.00225531
_symmetry_Int_Tables_number   1
_chemical_formula_structural   GeBrF
_chemical_formula_sum   'Ge1 Br1 F1'
_cell_volume   81.20583255
_cell_formula_units_Z   1
loop_
 _symmetry_equiv_pos_site_id
 _symmetry_equiv_pos_as_xyz
  1  'x, y, z'
loop_
 _atom_site_type_symbol
 _atom_site_label
 _atom_site_symmetry_multiplicity
 _atom_site_fract_x
 _atom_site_fract_y
 _atom_site_fract_z
 _atom_site_occupancy
  Ge  Ge0  1  0.33333760  0.66666207  0.44811877  1
  Br  Br1  1  0.33333324  0.66666679  0.85060008  1
  F  F2  1  -0.00000418  0.00000447  0.43128115  1
