# generated using pymatgen
data_GeTe2Pd
_symmetry_space_group_name_H-M   P1
_cell_length_a   4.91155106
_cell_length_b   5.14146691
_cell_length_c   5.87327185
_cell_angle_alpha   68.82610834
_cell_angle_beta   75.18298484
_cell_angle_gamma   85.51066064
_symmetry_Int_Tables_number   1
_chemical_formula_structural   GeTe2Pd
_chemical_formula_sum   'Ge1 Te2 Pd1'
_cell_volume   133.68701779
_cell_formula_units_Z   1
loop_
 _symmetry_equiv_pos_site_id
 _symmetry_equiv_pos_as_xyz
  1  'x, y, z'
loop_
 _atom_site_type_symbol
 _atom_site_label
 _atom_site_symmetry_multiplicity
 _atom_site_fract_x
 _atom_site_fract_y
 _atom_site_fract_z
 _atom_site_occupancy
  Ge  Ge0  1  0.36154891  0.97847956  0.55664646  1
  Te  Te1  1  0.68559155  0.50488847  0.69410257  1
  Te  Te2  1  0.78217843  0.02032931  0.15366061  1
  Pd  Pd3  1  0.84898111  0.01910266  0.63669035  1
