# generated using pymatgen
data_H2Br5
_symmetry_space_group_name_H-M   P1
_cell_length_a   5.83240774
_cell_length_b   7.63076313
_cell_length_c   7.65041796
_cell_angle_alpha   71.94117861
_cell_angle_beta   68.97004330
_cell_angle_gamma   68.95575206
_symmetry_Int_Tables_number   1
_chemical_formula_structural   H2Br5
_chemical_formula_sum   'H2 Br5'
_cell_volume   290.12920412
_cell_formula_units_Z   1
loop_
 _symmetry_equiv_pos_site_id
 _symmetry_equiv_pos_as_xyz
  1  'x, y, z'
loop_
 _atom_site_type_symbol
 _atom_site_label
 _atom_site_symmetry_multiplicity
 _atom_site_fract_x
 _atom_site_fract_y
 _atom_site_fract_z
 _atom_site_occupancy
  H  H0  1  0.42819944  0.96165624  0.31402460  1
  H  H1  1  0.82114774  0.06104544  0.15585833  1
  Br  Br2  1  0.07808912  0.01828515  0.99251487  1
  Br  Br3  1  0.34050294  0.74793579  0.26954242  1
  Br  Br4  1  0.48795345  0.52084893  0.56969649  1
  Br  Br5  1  0.50236382  0.11771136  0.34957277  1
  Br  Br6  1  0.81814349  0.28451708  0.72929052  1
