# generated using pymatgen
data_HF
_symmetry_space_group_name_H-M   Cm
_cell_length_a   5.72111217
_cell_length_b   2.26274087
_cell_length_c   3.23295015
_cell_angle_alpha   90.00000000
_cell_angle_beta   110.50676994
_cell_angle_gamma   90.00000000
_symmetry_Int_Tables_number   8
_chemical_formula_structural   HF
_chemical_formula_sum   'H2 F2'
_cell_volume   39.19969873
_cell_formula_units_Z   2
loop_
 _symmetry_equiv_pos_site_id
 _symmetry_equiv_pos_as_xyz
  1  'x, y, z'
  2  'x, -y, z'
  3  'x+1/2, y+1/2, z'
  4  'x+1/2, -y+1/2, z'
loop_
 _atom_site_type_symbol
 _atom_site_label
 _atom_site_symmetry_multiplicity
 _atom_site_fract_x
 _atom_site_fract_y
 _atom_site_fract_z
 _atom_site_occupancy
  H  H0  2  0.36426682  0.00000000  0.87206098  1
  F  F1  2  0.38606965  0.50000000  0.87793902  1
