# generated using pymatgen
data_HfAsH
_symmetry_space_group_name_H-M   'P 1'
_cell_length_a   3.61081205
_cell_length_b   3.61081218
_cell_length_c   3.61543313
_cell_angle_alpha   89.99999917
_cell_angle_beta   90.00000032
_cell_angle_gamma   119.99999531
_symmetry_Int_Tables_number   1
_chemical_formula_structural   HfAsH
_chemical_formula_sum   'Hf1 As1 H1'
_cell_volume   40.82260997
_cell_formula_units_Z   1
loop_
 _symmetry_equiv_pos_site_id
 _symmetry_equiv_pos_as_xyz
  1  'x, y, z'
loop_
 _atom_site_type_symbol
 _atom_site_label
 _atom_site_symmetry_multiplicity
 _atom_site_fract_x
 _atom_site_fract_y
 _atom_site_fract_z
 _atom_site_occupancy
  Hf  Hf0  1  -0.00000000  0.00000002  -0.00000001  1
  As  As1  1  0.33333333  0.66666667  0.50000000  1
  H  H2  1  0.66666667  0.33333331  0.00000001  1
