# generated using pymatgen
data_HfPF
_symmetry_space_group_name_H-M   'P 1'
_cell_length_a   3.80030584
_cell_length_b   3.80030575
_cell_length_c   3.49751794
_cell_angle_alpha   89.99999687
_cell_angle_beta   90.00000391
_cell_angle_gamma   120.00002078
_symmetry_Int_Tables_number   1
_chemical_formula_structural   HfPF
_chemical_formula_sum   'Hf1 P1 F1'
_cell_volume   43.74491528
_cell_formula_units_Z   1
loop_
 _symmetry_equiv_pos_site_id
 _symmetry_equiv_pos_as_xyz
  1  'x, y, z'
loop_
 _atom_site_type_symbol
 _atom_site_label
 _atom_site_symmetry_multiplicity
 _atom_site_fract_x
 _atom_site_fract_y
 _atom_site_fract_z
 _atom_site_occupancy
  Hf  Hf0  1  -0.00000000  0.00000001  -0.00000001  1
  P  P1  1  0.33333334  0.66666665  0.50000001  1
  F  F2  1  0.66666666  0.33333335  -0.00000000  1
