# generated using pymatgen
data_HfPH
_symmetry_space_group_name_H-M   'P 1'
_cell_length_a   3.48555653
_cell_length_b   3.48555638
_cell_length_c   3.46748416
_cell_angle_alpha   90.00000384
_cell_angle_beta   89.99998055
_cell_angle_gamma   119.99999520
_symmetry_Int_Tables_number   1
_chemical_formula_structural   HfPH
_chemical_formula_sum   'Hf1 P1 H1'
_cell_volume   36.48290236
_cell_formula_units_Z   1
loop_
 _symmetry_equiv_pos_site_id
 _symmetry_equiv_pos_as_xyz
  1  'x, y, z'
loop_
 _atom_site_type_symbol
 _atom_site_label
 _atom_site_symmetry_multiplicity
 _atom_site_fract_x
 _atom_site_fract_y
 _atom_site_fract_z
 _atom_site_occupancy
  Hf  Hf0  1  -0.00000004  -0.00000003  -0.00000002  1
  P  P1  1  0.33333334  0.66666670  0.50000001  1
  H  H2  1  0.66666671  0.33333333  0.50000001  1
