# generated using pymatgen
data_HfSe3
_symmetry_space_group_name_H-M   P1
_cell_length_a   3.80018029
_cell_length_b   4.86707704
_cell_length_c   7.74545972
_cell_angle_alpha   76.74175924
_cell_angle_beta   78.80951688
_cell_angle_gamma   72.81623745
_symmetry_Int_Tables_number   1
_chemical_formula_structural   HfSe3
_chemical_formula_sum   'Hf1 Se3'
_cell_volume   131.98080845
_cell_formula_units_Z   1
loop_
 _symmetry_equiv_pos_site_id
 _symmetry_equiv_pos_as_xyz
  1  'x, y, z'
loop_
 _atom_site_type_symbol
 _atom_site_label
 _atom_site_symmetry_multiplicity
 _atom_site_fract_x
 _atom_site_fract_y
 _atom_site_fract_z
 _atom_site_occupancy
  Hf  Hf0  1  0.37180155  0.94740736  0.25495722  1
  Se  Se1  1  0.01410096  0.94736261  0.98460630  1
  Se  Se2  1  0.45744483  0.48859580  0.09562175  1
  Se  Se3  1  0.80765266  0.89403423  0.48511473  1
