# generated using pymatgen
data_HfSO
_symmetry_space_group_name_H-M   'P 1'
_cell_length_a   3.59650540
_cell_length_b   3.59650547
_cell_length_c   3.84037823
_cell_angle_alpha   90.00000158
_cell_angle_beta   89.99999568
_cell_angle_gamma   119.99999794
_symmetry_Int_Tables_number   1
_chemical_formula_structural   HfSO
_chemical_formula_sum   'Hf1 S1 O1'
_cell_volume   43.01957169
_cell_formula_units_Z   1
loop_
 _symmetry_equiv_pos_site_id
 _symmetry_equiv_pos_as_xyz
  1  'x, y, z'
loop_
 _atom_site_type_symbol
 _atom_site_label
 _atom_site_symmetry_multiplicity
 _atom_site_fract_x
 _atom_site_fract_y
 _atom_site_fract_z
 _atom_site_occupancy
  Hf  Hf0  1  0.00000003  -0.00000002  0.00000001  1
  S  S1  1  0.33333329  0.66666668  0.49999999  1
  O  O2  1  0.66666668  0.33333335  0.00000000  1
