# generated using pymatgen
data_HgPBr
_symmetry_space_group_name_H-M   'P 1'
_cell_length_a   5.96995866
_cell_length_b   5.95539409
_cell_length_c   5.91165357
_cell_angle_alpha   44.02386839
_cell_angle_beta   43.98822335
_cell_angle_gamma   44.66288381
_symmetry_Int_Tables_number   1
_chemical_formula_structural   HgPBr
_chemical_formula_sum   'Hg1 P1 Br1'
_cell_volume   92.89730628
_cell_formula_units_Z   1
loop_
 _symmetry_equiv_pos_site_id
 _symmetry_equiv_pos_as_xyz
  1  'x, y, z'
loop_
 _atom_site_type_symbol
 _atom_site_label
 _atom_site_symmetry_multiplicity
 _atom_site_fract_x
 _atom_site_fract_y
 _atom_site_fract_z
 _atom_site_occupancy
  Hg  Hg0  1  0.62422178  0.62422843  0.63586012  1
  P  P1  1  -0.01941500  -0.02006189  -0.03086857  1
  Br  Br2  1  0.11989321  0.12053346  0.11970845  1
