# generated using pymatgen
data_HgPbBr2
_symmetry_space_group_name_H-M   'P 1'
_cell_length_a   5.89062665
_cell_length_b   4.44435122
_cell_length_c   7.60368833
_cell_angle_alpha   89.99999599
_cell_angle_beta   91.24196057
_cell_angle_gamma   89.99999514
_symmetry_Int_Tables_number   1
_chemical_formula_structural   HgPbBr2
_chemical_formula_sum   'Hg1 Pb1 Br2'
_cell_volume   199.01790011
_cell_formula_units_Z   1
loop_
 _symmetry_equiv_pos_site_id
 _symmetry_equiv_pos_as_xyz
  1  'x, y, z'
loop_
 _atom_site_type_symbol
 _atom_site_label
 _atom_site_symmetry_multiplicity
 _atom_site_fract_x
 _atom_site_fract_y
 _atom_site_fract_z
 _atom_site_occupancy
  Hg  Hg0  1  -0.11151862  0.50000002  -0.10056402  1
  Pb  Pb1  1  0.54858283  -0.00000001  0.07262775  1
  Br  Br2  1  0.27074661  -0.00000001  0.77769306  1
  Br  Br3  1  0.32318918  0.50000000  0.25354322  1
