# generated using pymatgen
data_HoHO
_symmetry_space_group_name_H-M   'P 1'
_cell_length_a   3.52273037
_cell_length_b   3.52272739
_cell_length_c   2.92148973
_cell_angle_alpha   90.00000162
_cell_angle_beta   89.99999641
_cell_angle_gamma   120.00021685
_symmetry_Int_Tables_number   1
_chemical_formula_structural   HoHO
_chemical_formula_sum   'Ho1 H1 O1'
_cell_volume   31.39731329
_cell_formula_units_Z   1
loop_
 _symmetry_equiv_pos_site_id
 _symmetry_equiv_pos_as_xyz
  1  'x, y, z'
loop_
 _atom_site_type_symbol
 _atom_site_label
 _atom_site_symmetry_multiplicity
 _atom_site_fract_x
 _atom_site_fract_y
 _atom_site_fract_z
 _atom_site_occupancy
  Ho  Ho0  1  0.00000008  -0.00000008  0.00000002  1
  H  H1  1  0.33333340  0.66666643  0.49999999  1
  O  O2  1  0.66666653  0.33333365  0.49999999  1
