# generated using pymatgen
data_HoInAs
_symmetry_space_group_name_H-M   'P 1'
_cell_length_a   5.03766351
_cell_length_b   4.09195169
_cell_length_c   4.00291725
_cell_angle_alpha   89.99998430
_cell_angle_beta   90.00000716
_cell_angle_gamma   89.99999460
_symmetry_Int_Tables_number   1
_chemical_formula_structural   HoInAs
_chemical_formula_sum   'Ho1 In1 As1'
_cell_volume   82.51563868
_cell_formula_units_Z   1
loop_
 _symmetry_equiv_pos_site_id
 _symmetry_equiv_pos_as_xyz
  1  'x, y, z'
loop_
 _atom_site_type_symbol
 _atom_site_label
 _atom_site_symmetry_multiplicity
 _atom_site_fract_x
 _atom_site_fract_y
 _atom_site_fract_z
 _atom_site_occupancy
  Ho  Ho0  1  -0.00000014  -0.00000018  -0.00000016  1
  In  In1  1  0.49999990  0.50000004  0.00000027  1
  As  As2  1  0.00000024  0.50000015  0.49999989  1
