# generated using pymatgen
data_HoMoP
_symmetry_space_group_name_H-M   'P 1'
_cell_length_a   3.52453257
_cell_length_b   3.52453706
_cell_length_c   5.52504347
_cell_angle_alpha   89.99899280
_cell_angle_beta   90.00090933
_cell_angle_gamma   119.99887560
_symmetry_Int_Tables_number   1
_chemical_formula_structural   HoMoP
_chemical_formula_sum   'Ho1 Mo1 P1'
_cell_volume   59.43946083
_cell_formula_units_Z   1
loop_
 _symmetry_equiv_pos_site_id
 _symmetry_equiv_pos_as_xyz
  1  'x, y, z'
loop_
 _atom_site_type_symbol
 _atom_site_label
 _atom_site_symmetry_multiplicity
 _atom_site_fract_x
 _atom_site_fract_y
 _atom_site_fract_z
 _atom_site_occupancy
  Ho  Ho0  1  0.33333248  0.66666779  -0.03161525  1
  Mo  Mo1  1  0.66666772  0.33333268  0.52434544  1
  P  P2  1  -0.00000020  -0.00000047  0.30056981  1
