# generated using pymatgen
data_HoNbS2
_symmetry_space_group_name_H-M   'P 1'
_cell_length_a   3.43846449
_cell_length_b   3.43826447
_cell_length_c   7.08841447
_cell_angle_alpha   90.00454583
_cell_angle_beta   89.99710873
_cell_angle_gamma   120.00208000
_symmetry_Int_Tables_number   1
_chemical_formula_structural   HoNbS2
_chemical_formula_sum   'Ho1 Nb1 S2'
_cell_volume   72.57289591
_cell_formula_units_Z   1
loop_
 _symmetry_equiv_pos_site_id
 _symmetry_equiv_pos_as_xyz
  1  'x, y, z'
loop_
 _atom_site_type_symbol
 _atom_site_label
 _atom_site_symmetry_multiplicity
 _atom_site_fract_x
 _atom_site_fract_y
 _atom_site_fract_z
 _atom_site_occupancy
  Ho  Ho0  1  0.00003267  0.00013023  0.62183643  1
  Nb  Nb1  1  -0.00002096  -0.00007504  0.12175759  1
  S  S2  1  0.33332724  0.66663899  -0.10895286  1
  S  S3  1  0.66666104  0.33330582  0.35335884  1
