# generated using pymatgen
data_IBr3
_symmetry_space_group_name_H-M   P1
_cell_length_a   5.32691773
_cell_length_b   6.01625739
_cell_length_c   7.17515910
_cell_angle_alpha   101.75888329
_cell_angle_beta   93.69604079
_cell_angle_gamma   102.08255715
_symmetry_Int_Tables_number   1
_chemical_formula_structural   IBr3
_chemical_formula_sum   'I1 Br3'
_cell_volume   218.75483421
_cell_formula_units_Z   1
loop_
 _symmetry_equiv_pos_site_id
 _symmetry_equiv_pos_as_xyz
  1  'x, y, z'
loop_
 _atom_site_type_symbol
 _atom_site_label
 _atom_site_symmetry_multiplicity
 _atom_site_fract_x
 _atom_site_fract_y
 _atom_site_fract_z
 _atom_site_occupancy
  I  I0  1  0.77858169  0.65923238  0.01038109  1
  Br  Br1  1  0.09099736  0.02283372  0.32492275  1
  Br  Br2  1  0.49395230  0.35895827  0.72894916  1
  Br  Br3  1  0.94726865  0.33957563  0.18124700  1
