# generated using pymatgen
data_InCl3
_symmetry_space_group_name_H-M   P1
_cell_length_a   3.98135931
_cell_length_b   6.46595970
_cell_length_c   7.11376313
_cell_angle_alpha   75.25230004
_cell_angle_beta   77.83478044
_cell_angle_gamma   85.76645277
_symmetry_Int_Tables_number   1
_chemical_formula_structural   InCl3
_chemical_formula_sum   'In1 Cl3'
_cell_volume   173.08236613
_cell_formula_units_Z   1
loop_
 _symmetry_equiv_pos_site_id
 _symmetry_equiv_pos_as_xyz
  1  'x, y, z'
loop_
 _atom_site_type_symbol
 _atom_site_label
 _atom_site_symmetry_multiplicity
 _atom_site_fract_x
 _atom_site_fract_y
 _atom_site_fract_z
 _atom_site_occupancy
  In  In0  1  0.16871755  0.22095299  0.68086955  1
  Cl  Cl1  1  0.03102533  0.18388142  0.02133978  1
  Cl  Cl2  1  0.22483882  0.54784205  0.44828702  1
  Cl  Cl3  1  0.72051829  0.01112354  0.60480365  1
