# generated using pymatgen
data_InS
_symmetry_space_group_name_H-M   Cm
_cell_length_a   5.31447134
_cell_length_b   5.46713356
_cell_length_c   3.94883711
_cell_angle_alpha   90.00000000
_cell_angle_beta   119.60667158
_cell_angle_gamma   90.00000000
_symmetry_Int_Tables_number   8
_chemical_formula_structural   InS
_chemical_formula_sum   'In2 S2'
_cell_volume   99.75330520
_cell_formula_units_Z   2
loop_
 _symmetry_equiv_pos_site_id
 _symmetry_equiv_pos_as_xyz
  1  'x, y, z'
  2  'x, -y, z'
  3  'x+1/2, y+1/2, z'
  4  'x+1/2, -y+1/2, z'
loop_
 _atom_site_type_symbol
 _atom_site_label
 _atom_site_symmetry_multiplicity
 _atom_site_fract_x
 _atom_site_fract_y
 _atom_site_fract_z
 _atom_site_occupancy
  In  In0  2  0.45308840  0.50000000  0.00639329  1
  S  S1  2  0.04758845  0.50000000  0.24360671  1
