# generated using pymatgen
data_InSbSe4
_symmetry_space_group_name_H-M   'P 1'
_cell_length_a   4.18155813
_cell_length_b   5.95227457
_cell_length_c   7.81116742
_cell_angle_alpha   95.82463348
_cell_angle_beta   106.30449686
_cell_angle_gamma   108.63496652
_symmetry_Int_Tables_number   1
_chemical_formula_structural   InSbSe4
_chemical_formula_sum   'In1 Sb1 Se4'
_cell_volume   172.86536054
_cell_formula_units_Z   1
loop_
 _symmetry_equiv_pos_site_id
 _symmetry_equiv_pos_as_xyz
  1  'x, y, z'
loop_
 _atom_site_type_symbol
 _atom_site_label
 _atom_site_symmetry_multiplicity
 _atom_site_fract_x
 _atom_site_fract_y
 _atom_site_fract_z
 _atom_site_occupancy
  In  In0  1  0.10153234  0.57529819  0.04152597  1
  Sb  Sb1  1  0.95190842  0.26257821  0.52489632  1
  Se  Se2  1  0.04361431  0.69238580  0.72022428  1
  Se  Se3  1  0.29372946  0.25888201  0.23124937  1
  Se  Se4  1  0.52632789  0.17070695  0.75512582  1
  Se  Se5  1  0.81668757  0.78994884  0.23707824  1
