# generated using pymatgen
data_K5Cl8
_symmetry_space_group_name_H-M   Pm
_cell_length_a   6.36756385
_cell_length_b   6.24201123
_cell_length_c   10.78213488
_cell_angle_alpha   90.00000000
_cell_angle_beta   99.57876147
_cell_angle_gamma   90.00000000
_symmetry_Int_Tables_number   6
_chemical_formula_structural   K5Cl8
_chemical_formula_sum   'K5 Cl8'
_cell_volume   422.57615005
_cell_formula_units_Z   1
loop_
 _symmetry_equiv_pos_site_id
 _symmetry_equiv_pos_as_xyz
  1  'x, y, z'
  2  'x, -y, z'
loop_
 _atom_site_type_symbol
 _atom_site_label
 _atom_site_symmetry_multiplicity
 _atom_site_fract_x
 _atom_site_fract_y
 _atom_site_fract_z
 _atom_site_occupancy
  K  K0  1  0.26842380  0.00000000  0.09839961  1
  K  K1  1  0.34485692  0.50000000  0.38561841  1
  K  K2  1  0.42794705  0.00000000  0.67825834  1
  K  K3  1  0.75478726  0.50000000  0.02402828  1
  K  K4  1  0.83968062  0.00000000  0.37831739  1
  Cl  Cl5  1  0.22200222  0.50000000  0.67514650  1
  Cl  Cl6  1  0.26845406  0.50000000  0.07717144  1
  Cl  Cl7  1  0.34308952  0.00000000  0.39005028  1
  Cl  Cl8  1  0.64382555  0.50000000  0.69014556  1
  Cl  Cl9  1  0.75765404  0.00000000  0.07890781  1
  Cl  Cl10  1  0.82715153  0.50000000  0.32336914  1
  Cl  Cl11  1  0.86100239  0.00000000  0.86883207  1
  Cl  Cl12  1  0.94012504  0.00000000  0.68225516  1
