# generated using pymatgen
data_KAuCl2
_symmetry_space_group_name_H-M   'P 1'
_cell_length_a   4.27976703
_cell_length_b   4.44125700
_cell_length_c   6.66479117
_cell_angle_alpha   90.01261121
_cell_angle_beta   101.79207425
_cell_angle_gamma   89.99450085
_symmetry_Int_Tables_number   1
_chemical_formula_structural   KAuCl2
_chemical_formula_sum   'K1 Au1 Cl2'
_cell_volume   124.00779199
_cell_formula_units_Z   1
loop_
 _symmetry_equiv_pos_site_id
 _symmetry_equiv_pos_as_xyz
  1  'x, y, z'
loop_
 _atom_site_type_symbol
 _atom_site_label
 _atom_site_symmetry_multiplicity
 _atom_site_fract_x
 _atom_site_fract_y
 _atom_site_fract_z
 _atom_site_occupancy
  K  K0  1  0.45720837  -0.00000459  0.44695305  1
  Au  Au1  1  0.03245246  0.49995017  0.97376164  1
  Cl  Cl2  1  0.08582707  0.00006109  0.83793191  1
  Cl  Cl3  1  0.92451210  0.49999333  0.34135339  1
