# generated using pymatgen
data_KCoI2
_symmetry_space_group_name_H-M   'P 1'
_cell_length_a   4.47037784
_cell_length_b   4.45809976
_cell_length_c   7.48145767
_cell_angle_alpha   90.05179425
_cell_angle_beta   74.75030715
_cell_angle_gamma   89.92860750
_symmetry_Int_Tables_number   1
_chemical_formula_structural   KCoI2
_chemical_formula_sum   'K1 Co1 I2'
_cell_volume   143.85063031
_cell_formula_units_Z   1
loop_
 _symmetry_equiv_pos_site_id
 _symmetry_equiv_pos_as_xyz
  1  'x, y, z'
loop_
 _atom_site_type_symbol
 _atom_site_label
 _atom_site_symmetry_multiplicity
 _atom_site_fract_x
 _atom_site_fract_y
 _atom_site_fract_z
 _atom_site_occupancy
  K  K0  1  -0.19411099  0.49991640  0.58020130  1
  Co  Co1  1  0.62499935  -0.00035566  0.01172709  1
  I  I2  1  0.20698723  0.00046451  0.80713095  1
  I  I3  1  0.47012441  0.49997475  0.20824065  1
