# generated using pymatgen
data_KCrBr2
_symmetry_space_group_name_H-M   'P 1'
_cell_length_a   4.24240122
_cell_length_b   4.78211694
_cell_length_c   6.84334705
_cell_angle_alpha   89.99996577
_cell_angle_beta   108.61884797
_cell_angle_gamma   90.00001060
_symmetry_Int_Tables_number   1
_chemical_formula_structural   KCrBr2
_chemical_formula_sum   'K1 Cr1 Br2'
_cell_volume   131.56931682
_cell_formula_units_Z   1
loop_
 _symmetry_equiv_pos_site_id
 _symmetry_equiv_pos_as_xyz
  1  'x, y, z'
loop_
 _atom_site_type_symbol
 _atom_site_label
 _atom_site_symmetry_multiplicity
 _atom_site_fract_x
 _atom_site_fract_y
 _atom_site_fract_z
 _atom_site_occupancy
  K  K0  1  0.67431812  0.50000014  0.06693791  1
  Cr  Cr1  1  -0.06000295  -0.00000029  0.53278712  1
  Br  Br2  1  -0.02943844  0.50000027  0.67741745  1
  Br  Br3  1  0.27312327  -0.00000012  0.25055752  1
