# generated using pymatgen
data_KCuF2
_symmetry_space_group_name_H-M   'P 1'
_cell_length_a   3.51349579
_cell_length_b   3.51349360
_cell_length_c   4.93860973
_cell_angle_alpha   89.99992737
_cell_angle_beta   89.99993904
_cell_angle_gamma   89.99994782
_symmetry_Int_Tables_number   1
_chemical_formula_structural   KCuF2
_chemical_formula_sum   'K1 Cu1 F2'
_cell_volume   60.96538377
_cell_formula_units_Z   1
loop_
 _symmetry_equiv_pos_site_id
 _symmetry_equiv_pos_as_xyz
  1  'x, y, z'
loop_
 _atom_site_type_symbol
 _atom_site_label
 _atom_site_symmetry_multiplicity
 _atom_site_fract_x
 _atom_site_fract_y
 _atom_site_fract_z
 _atom_site_occupancy
  K  K0  1  0.50000001  0.49999988  -0.00000019  1
  Cu  Cu1  1  -0.00000000  0.00000009  0.50000010  1
  F  F2  1  -0.00000010  -0.00000015  0.00000015  1
  F  F3  1  0.50000009  0.50000018  0.49999994  1
