# generated using pymatgen
data_KErSe2
_symmetry_space_group_name_H-M   'P 1'
_cell_length_a   4.31568871
_cell_length_b   4.31568957
_cell_length_c   5.86574804
_cell_angle_alpha   90.00000605
_cell_angle_beta   90.00000158
_cell_angle_gamma   90.00003000
_symmetry_Int_Tables_number   1
_chemical_formula_structural   KErSe2
_chemical_formula_sum   'K1 Er1 Se2'
_cell_volume   109.25057057
_cell_formula_units_Z   1
loop_
 _symmetry_equiv_pos_site_id
 _symmetry_equiv_pos_as_xyz
  1  'x, y, z'
loop_
 _atom_site_type_symbol
 _atom_site_label
 _atom_site_symmetry_multiplicity
 _atom_site_fract_x
 _atom_site_fract_y
 _atom_site_fract_z
 _atom_site_occupancy
  K  K0  1  0.00000000  -0.00000014  0.00000015  1
  Er  Er1  1  0.50000001  0.50000038  0.49999942  1
  Se  Se2  1  0.00000007  -0.00000001  0.50000023  1
  Se  Se3  1  0.49999991  0.49999978  0.00000020  1
