# generated using pymatgen
data_KEuSb
_symmetry_space_group_name_H-M   'P 1'
_cell_length_a   4.46708913
_cell_length_b   4.46709048
_cell_length_c   7.49478129
_cell_angle_alpha   89.99999064
_cell_angle_beta   89.99997689
_cell_angle_gamma   90.00002155
_symmetry_Int_Tables_number   1
_chemical_formula_structural   KEuSb
_chemical_formula_sum   'K1 Eu1 Sb1'
_cell_volume   149.55754615
_cell_formula_units_Z   1
loop_
 _symmetry_equiv_pos_site_id
 _symmetry_equiv_pos_as_xyz
  1  'x, y, z'
loop_
 _atom_site_type_symbol
 _atom_site_label
 _atom_site_symmetry_multiplicity
 _atom_site_fract_x
 _atom_site_fract_y
 _atom_site_fract_z
 _atom_site_occupancy
  K  K0  1  0.49999998  0.50000001  0.00000000  1
  Eu  Eu1  1  0.50000003  0.49999998  0.50000000  1
  Sb  Sb2  1  -0.00000001  0.00000000  0.49999999  1
