# generated using pymatgen
data_KGdF
_symmetry_space_group_name_H-M   'P 1'
_cell_length_a   3.86768595
_cell_length_b   4.12056512
_cell_length_c   6.51730737
_cell_angle_alpha   90.00033836
_cell_angle_beta   90.00116325
_cell_angle_gamma   89.99999856
_symmetry_Int_Tables_number   1
_chemical_formula_structural   KGdF
_chemical_formula_sum   'K1 Gd1 F1'
_cell_volume   103.86666528
_cell_formula_units_Z   1
loop_
 _symmetry_equiv_pos_site_id
 _symmetry_equiv_pos_as_xyz
  1  'x, y, z'
loop_
 _atom_site_type_symbol
 _atom_site_label
 _atom_site_symmetry_multiplicity
 _atom_site_fract_x
 _atom_site_fract_y
 _atom_site_fract_z
 _atom_site_occupancy
  K  K0  1  0.49998918  0.50000532  0.50361271  1
  Gd  Gd1  1  0.00000854  -0.00000337  0.03022122  1
  F  F2  1  0.00000228  0.49999805  0.17546607  1
