# generated using pymatgen
data_KHgCl
_symmetry_space_group_name_H-M   'P 1'
_cell_length_a   4.34077013
_cell_length_b   4.34076946
_cell_length_c   7.63602340
_cell_angle_alpha   90.00001815
_cell_angle_beta   89.99999750
_cell_angle_gamma   90.00000026
_symmetry_Int_Tables_number   1
_chemical_formula_structural   KHgCl
_chemical_formula_sum   'K1 Hg1 Cl1'
_cell_volume   143.88010942
_cell_formula_units_Z   1
loop_
 _symmetry_equiv_pos_site_id
 _symmetry_equiv_pos_as_xyz
  1  'x, y, z'
loop_
 _atom_site_type_symbol
 _atom_site_label
 _atom_site_symmetry_multiplicity
 _atom_site_fract_x
 _atom_site_fract_y
 _atom_site_fract_z
 _atom_site_occupancy
  K  K0  1  0.50000000  0.50000000  0.50000001  1
  Hg  Hg1  1  -0.00000000  -0.00000000  0.00000000  1
  Cl  Cl2  1  0.00000000  0.00000000  0.49999999  1
