# generated using pymatgen
data_KPH
_symmetry_space_group_name_H-M   'P 1'
_cell_length_a   3.40313367
_cell_length_b   3.22015988
_cell_length_c   4.90441619
_cell_angle_alpha   90.00000383
_cell_angle_beta   89.99999903
_cell_angle_gamma   89.99999983
_symmetry_Int_Tables_number   1
_chemical_formula_structural   KPH
_chemical_formula_sum   'K1 P1 H1'
_cell_volume   53.74570451
_cell_formula_units_Z   1
loop_
 _symmetry_equiv_pos_site_id
 _symmetry_equiv_pos_as_xyz
  1  'x, y, z'
loop_
 _atom_site_type_symbol
 _atom_site_label
 _atom_site_symmetry_multiplicity
 _atom_site_fract_x
 _atom_site_fract_y
 _atom_site_fract_z
 _atom_site_occupancy
  K  K0  1  -0.00000001  0.00000001  -0.04731568  1
  P  P1  1  0.49999999  0.50000000  0.46281837  1
  H  H2  1  0.00000002  0.49999999  0.39479731  1
