# generated using pymatgen
data_KPrCl
_symmetry_space_group_name_H-M   'P 1'
_cell_length_a   3.78779103
_cell_length_b   3.68161848
_cell_length_c   8.31272411
_cell_angle_alpha   90.00095439
_cell_angle_beta   89.99899806
_cell_angle_gamma   90.00251627
_symmetry_Int_Tables_number   1
_chemical_formula_structural   KPrCl
_chemical_formula_sum   'K1 Pr1 Cl1'
_cell_volume   115.92261228
_cell_formula_units_Z   1
loop_
 _symmetry_equiv_pos_site_id
 _symmetry_equiv_pos_as_xyz
  1  'x, y, z'
loop_
 _atom_site_type_symbol
 _atom_site_label
 _atom_site_symmetry_multiplicity
 _atom_site_fract_x
 _atom_site_fract_y
 _atom_site_fract_z
 _atom_site_occupancy
  K  K0  1  0.49999958  0.49999974  0.53460297  1
  Pr  Pr1  1  -0.00000041  -0.00000231  -0.03426554  1
  Cl  Cl2  1  0.00000083  0.50000257  0.23296257  1
