# generated using pymatgen
data_KRbTe
_symmetry_space_group_name_H-M   'P 1'
_cell_length_a   5.72364492
_cell_length_b   5.72364503
_cell_length_c   5.16820920
_cell_angle_alpha   90.00000016
_cell_angle_beta   90.00000222
_cell_angle_gamma   120.00001180
_symmetry_Int_Tables_number   1
_chemical_formula_structural   KRbTe
_chemical_formula_sum   'K1 Rb1 Te1'
_cell_volume   146.62770604
_cell_formula_units_Z   1
loop_
 _symmetry_equiv_pos_site_id
 _symmetry_equiv_pos_as_xyz
  1  'x, y, z'
loop_
 _atom_site_type_symbol
 _atom_site_label
 _atom_site_symmetry_multiplicity
 _atom_site_fract_x
 _atom_site_fract_y
 _atom_site_fract_z
 _atom_site_occupancy
  K  K0  1  0.66666666  0.33333334  0.50000000  1
  Rb  Rb1  1  -0.00000002  0.00000000  0.00000000  1
  Te  Te2  1  0.33333335  0.66666666  0.50000000  1
