# generated using pymatgen
data_KSrSb
_symmetry_space_group_name_H-M   'P 1'
_cell_length_a   5.36822646
_cell_length_b   5.36822617
_cell_length_c   5.72099611
_cell_angle_alpha   90.00000756
_cell_angle_beta   90.00000041
_cell_angle_gamma   120.00000272
_symmetry_Int_Tables_number   1
_chemical_formula_structural   KSrSb
_chemical_formula_sum   'K1 Sr1 Sb1'
_cell_volume   142.77885839
_cell_formula_units_Z   1
loop_
 _symmetry_equiv_pos_site_id
 _symmetry_equiv_pos_as_xyz
  1  'x, y, z'
loop_
 _atom_site_type_symbol
 _atom_site_label
 _atom_site_symmetry_multiplicity
 _atom_site_fract_x
 _atom_site_fract_y
 _atom_site_fract_z
 _atom_site_occupancy
  K  K0  1  -0.00000001  -0.00000003  0.03076584  1
  Sr  Sr1  1  0.33333334  0.66666668  0.51619644  1
  Sb  Sb2  1  0.66666667  0.33333335  0.35303772  1
