# generated using pymatgen
data_LaGaS
_symmetry_space_group_name_H-M   'P 1'
_cell_length_a   5.44063230
_cell_length_b   3.84793905
_cell_length_c   3.84759737
_cell_angle_alpha   89.99461621
_cell_angle_beta   89.99212305
_cell_angle_gamma   90.00191142
_symmetry_Int_Tables_number   1
_chemical_formula_structural   LaGaS
_chemical_formula_sum   'La1 Ga1 S1'
_cell_volume   80.55030218
_cell_formula_units_Z   1
loop_
 _symmetry_equiv_pos_site_id
 _symmetry_equiv_pos_as_xyz
  1  'x, y, z'
loop_
 _atom_site_type_symbol
 _atom_site_label
 _atom_site_symmetry_multiplicity
 _atom_site_fract_x
 _atom_site_fract_y
 _atom_site_fract_z
 _atom_site_occupancy
  La  La0  1  0.50000020  0.49999861  0.49999815  1
  Ga  Ga1  1  -0.00000044  -0.00000010  -0.00000046  1
  S  S2  1  0.00000024  0.50000149  0.50000231  1
