# generated using pymatgen
data_LaSF
_symmetry_space_group_name_H-M   'P 1'
_cell_length_a   4.14808118
_cell_length_b   4.14808080
_cell_length_c   4.03107072
_cell_angle_alpha   89.99999729
_cell_angle_beta   90.00000504
_cell_angle_gamma   120.00001060
_symmetry_Int_Tables_number   1
_chemical_formula_structural   LaSF
_chemical_formula_sum   'La1 S1 F1'
_cell_volume   60.06831604
_cell_formula_units_Z   1
loop_
 _symmetry_equiv_pos_site_id
 _symmetry_equiv_pos_as_xyz
  1  'x, y, z'
loop_
 _atom_site_type_symbol
 _atom_site_label
 _atom_site_symmetry_multiplicity
 _atom_site_fract_x
 _atom_site_fract_y
 _atom_site_fract_z
 _atom_site_occupancy
  La  La0  1  0.33333337  0.66666666  -0.00000003  1
  S  S1  1  0.66666666  0.33333332  0.50000000  1
  F  F2  1  -0.00000002  0.00000002  0.00000003  1
