# generated using pymatgen
data_LaTlN2
_symmetry_space_group_name_H-M   'P 1'
_cell_length_a   3.87326023
_cell_length_b   3.87325956
_cell_length_c   5.93849293
_cell_angle_alpha   89.99993872
_cell_angle_beta   90.00005095
_cell_angle_gamma   120.00008032
_symmetry_Int_Tables_number   1
_chemical_formula_structural   LaTlN2
_chemical_formula_sum   'La1 Tl1 N2'
_cell_volume   77.15424079
_cell_formula_units_Z   1
loop_
 _symmetry_equiv_pos_site_id
 _symmetry_equiv_pos_as_xyz
  1  'x, y, z'
loop_
 _atom_site_type_symbol
 _atom_site_label
 _atom_site_symmetry_multiplicity
 _atom_site_fract_x
 _atom_site_fract_y
 _atom_site_fract_z
 _atom_site_occupancy
  La  La0  1  0.33333325  0.66666675  0.37285167  1
  Tl  Tl1  1  0.00000032  -0.00000046  0.90910019  1
  N  N2  1  0.33333337  0.66666661  0.80298249  1
  N  N3  1  0.66666639  0.33333376  0.26046564  1
