# generated using pymatgen
data_Li2BrF
_symmetry_space_group_name_H-M   'P 1'
_cell_length_a   3.56627028
_cell_length_b   3.56628142
_cell_length_c   5.90714162
_cell_angle_alpha   89.99909937
_cell_angle_beta   90.00111715
_cell_angle_gamma   120.00170212
_symmetry_Int_Tables_number   1
_chemical_formula_structural   Li2BrF
_chemical_formula_sum   'Li2 Br1 F1'
_cell_volume   65.06245267
_cell_formula_units_Z   1
loop_
 _symmetry_equiv_pos_site_id
 _symmetry_equiv_pos_as_xyz
  1  'x, y, z'
loop_
 _atom_site_type_symbol
 _atom_site_label
 _atom_site_symmetry_multiplicity
 _atom_site_fract_x
 _atom_site_fract_y
 _atom_site_fract_z
 _atom_site_occupancy
  Li  Li0  1  0.00000759  -0.00001011  0.27072084  1
  Li  Li1  1  0.33332432  0.66667576  0.63867612  1
  Br  Br2  1  0.33333331  0.66666776  0.05988185  1
  F  F3  1  0.66666811  0.33333326  0.54162119  1
