# generated using pymatgen
data_Li2F7
_symmetry_space_group_name_H-M   P1
_cell_length_a   4.18708918
_cell_length_b   4.38094031
_cell_length_c   6.23208748
_cell_angle_alpha   79.86651254
_cell_angle_beta   84.88650144
_cell_angle_gamma   68.02117891
_symmetry_Int_Tables_number   1
_chemical_formula_structural   Li2F7
_chemical_formula_sum   'Li2 F7'
_cell_volume   104.32162244
_cell_formula_units_Z   1
loop_
 _symmetry_equiv_pos_site_id
 _symmetry_equiv_pos_as_xyz
  1  'x, y, z'
loop_
 _atom_site_type_symbol
 _atom_site_label
 _atom_site_symmetry_multiplicity
 _atom_site_fract_x
 _atom_site_fract_y
 _atom_site_fract_z
 _atom_site_occupancy
  Li  Li0  1  0.68383512  0.31685039  0.47030122  1
  Li  Li1  1  0.89857213  0.56454977  0.92701607  1
  F  F2  1  0.12263202  0.87095306  0.89011248  1
  F  F3  1  0.19164473  0.98824196  0.43000743  1
  F  F4  1  0.32005797  0.47073639  0.68296686  1
  F  F5  1  0.34630627  0.22765908  0.30076762  1
  F  F6  1  0.63671377  0.52227734  0.18354929  1
  F  F7  1  0.80066058  0.54669812  0.65093056  1
  F  F8  1  0.90447742  0.13073390  0.04004846  1
