# generated using pymatgen
data_LiBeAs
_symmetry_space_group_name_H-M   'P 1'
_cell_length_a   3.75973960
_cell_length_b   3.75973991
_cell_length_c   4.01702008
_cell_angle_alpha   90.00006543
_cell_angle_beta   89.99991052
_cell_angle_gamma   119.99938392
_symmetry_Int_Tables_number   1
_chemical_formula_structural   LiBeAs
_chemical_formula_sum   'Li1 Be1 As1'
_cell_volume   49.17596602
_cell_formula_units_Z   1
loop_
 _symmetry_equiv_pos_site_id
 _symmetry_equiv_pos_as_xyz
  1  'x, y, z'
loop_
 _atom_site_type_symbol
 _atom_site_label
 _atom_site_symmetry_multiplicity
 _atom_site_fract_x
 _atom_site_fract_y
 _atom_site_fract_z
 _atom_site_occupancy
  Li  Li0  1  0.33333343  0.66666667  0.50000002  1
  Be  Be1  1  0.66666400  0.33333600  -0.00000001  1
  As  As2  1  0.00000258  -0.00000267  -0.00000000  1
