# generated using pymatgen
data_LiCrBr2
_symmetry_space_group_name_H-M   'P 1'
_cell_length_a   4.59827519
_cell_length_b   4.46232197
_cell_length_c   6.97295059
_cell_angle_alpha   89.99919694
_cell_angle_beta   125.66098505
_cell_angle_gamma   89.99770636
_symmetry_Int_Tables_number   1
_chemical_formula_structural   LiCrBr2
_chemical_formula_sum   'Li1 Cr1 Br2'
_cell_volume   116.24800242
_cell_formula_units_Z   1
loop_
 _symmetry_equiv_pos_site_id
 _symmetry_equiv_pos_as_xyz
  1  'x, y, z'
loop_
 _atom_site_type_symbol
 _atom_site_label
 _atom_site_symmetry_multiplicity
 _atom_site_fract_x
 _atom_site_fract_y
 _atom_site_fract_z
 _atom_site_occupancy
  Li  Li0  1  0.49761658  -0.00000751  0.00719829  1
  Cr  Cr1  1  -0.02019013  0.50000926  -0.01199977  1
  Br  Br2  1  0.19976110  0.00000443  0.23803848  1
  Br  Br3  1  0.28081245  0.49999382  0.76446299  1
