# generated using pymatgen
data_LiGaBr2
_symmetry_space_group_name_H-M   'P 1'
_cell_length_a   5.91728177
_cell_length_b   4.24698438
_cell_length_c   7.25934848
_cell_angle_alpha   89.99958436
_cell_angle_beta   95.28299871
_cell_angle_gamma   90.00100465
_symmetry_Int_Tables_number   1
_chemical_formula_structural   LiGaBr2
_chemical_formula_sum   'Li1 Ga1 Br2'
_cell_volume   181.65684781
_cell_formula_units_Z   1
loop_
 _symmetry_equiv_pos_site_id
 _symmetry_equiv_pos_as_xyz
  1  'x, y, z'
loop_
 _atom_site_type_symbol
 _atom_site_label
 _atom_site_symmetry_multiplicity
 _atom_site_fract_x
 _atom_site_fract_y
 _atom_site_fract_z
 _atom_site_occupancy
  Li  Li0  1  0.42291735  0.50000348  0.09080169  1
  Ga  Ga1  1  -0.01499176  -0.00000481  -0.04123792  1
  Br  Br2  1  0.20451004  0.50000071  0.78675199  1
  Br  Br3  1  0.35556436  0.00000063  0.24138424  1
