# generated using pymatgen
data_LiGeN
_symmetry_space_group_name_H-M   'P 1'
_cell_length_a   3.53144952
_cell_length_b   3.53144957
_cell_length_c   3.81410015
_cell_angle_alpha   90.00000004
_cell_angle_beta   89.99999891
_cell_angle_gamma   120.00029322
_symmetry_Int_Tables_number   1
_chemical_formula_structural   LiGeN
_chemical_formula_sum   'Li1 Ge1 N1'
_cell_volume   41.19338232
_cell_formula_units_Z   1
loop_
 _symmetry_equiv_pos_site_id
 _symmetry_equiv_pos_as_xyz
  1  'x, y, z'
loop_
 _atom_site_type_symbol
 _atom_site_label
 _atom_site_symmetry_multiplicity
 _atom_site_fract_x
 _atom_site_fract_y
 _atom_site_fract_z
 _atom_site_occupancy
  Li  Li0  1  0.66666611  0.33333387  0.00000000  1
  Ge  Ge1  1  0.33333341  0.66666658  0.49999999  1
  N  N2  1  0.33333381  0.66666621  0.00000000  1
