# generated using pymatgen
data_LiHgF2
_symmetry_space_group_name_H-M   'P 1'
_cell_length_a   3.48627882
_cell_length_b   3.48627848
_cell_length_c   4.98216837
_cell_angle_alpha   89.99998945
_cell_angle_beta   89.99999758
_cell_angle_gamma   89.99998455
_symmetry_Int_Tables_number   1
_chemical_formula_structural   LiHgF2
_chemical_formula_sum   'Li1 Hg1 F2'
_cell_volume   60.55396602
_cell_formula_units_Z   1
loop_
 _symmetry_equiv_pos_site_id
 _symmetry_equiv_pos_as_xyz
  1  'x, y, z'
loop_
 _atom_site_type_symbol
 _atom_site_label
 _atom_site_symmetry_multiplicity
 _atom_site_fract_x
 _atom_site_fract_y
 _atom_site_fract_z
 _atom_site_occupancy
  Li  Li0  1  0.49999997  0.49999999  0.49999999  1
  Hg  Hg1  1  -0.00000001  0.00000003  -0.00000004  1
  F  F2  1  0.00000002  0.00000005  0.50000000  1
  F  F3  1  0.50000002  0.49999993  0.00000004  1
