# generated using pymatgen
data_LiHoI2
_symmetry_space_group_name_H-M   'P 1'
_cell_length_a   5.32706572
_cell_length_b   3.91279036
_cell_length_c   7.45646784
_cell_angle_alpha   90.00080997
_cell_angle_beta   120.56201544
_cell_angle_gamma   90.00744549
_symmetry_Int_Tables_number   1
_chemical_formula_structural   LiHoI2
_chemical_formula_sum   'Li1 Ho1 I2'
_cell_volume   133.82921548
_cell_formula_units_Z   1
loop_
 _symmetry_equiv_pos_site_id
 _symmetry_equiv_pos_as_xyz
  1  'x, y, z'
loop_
 _atom_site_type_symbol
 _atom_site_label
 _atom_site_symmetry_multiplicity
 _atom_site_fract_x
 _atom_site_fract_y
 _atom_site_fract_z
 _atom_site_occupancy
  Li  Li0  1  0.50841124  0.50002484  0.06608834  1
  Ho  Ho1  1  0.61727103  0.00002423  0.49549046  1
  I  I2  1  0.11062165  0.49989744  0.21167676  1
  I  I3  1  0.28469608  0.00005349  0.74474443  1
