# generated using pymatgen
data_LiMgN
_symmetry_space_group_name_H-M   'P 1'
_cell_length_a   3.30419228
_cell_length_b   3.30419294
_cell_length_c   3.18937308
_cell_angle_alpha   89.99999606
_cell_angle_beta   89.99997070
_cell_angle_gamma   120.00014840
_symmetry_Int_Tables_number   1
_chemical_formula_structural   LiMgN
_chemical_formula_sum   'Li1 Mg1 N1'
_cell_volume   30.15546415
_cell_formula_units_Z   1
loop_
 _symmetry_equiv_pos_site_id
 _symmetry_equiv_pos_as_xyz
  1  'x, y, z'
loop_
 _atom_site_type_symbol
 _atom_site_label
 _atom_site_symmetry_multiplicity
 _atom_site_fract_x
 _atom_site_fract_y
 _atom_site_fract_z
 _atom_site_occupancy
  Li  Li0  1  0.00000037  -0.00000044  0.49999997  1
  Mg  Mg1  1  0.33333293  0.66666706  0.00000011  1
  N  N2  1  0.66666670  0.33333338  0.49999992  1
