# generated using pymatgen
data_LiRuBr2
_symmetry_space_group_name_H-M   'P 1'
_cell_length_a   3.97671687
_cell_length_b   3.68553227
_cell_length_c   7.39920747
_cell_angle_alpha   90.00000790
_cell_angle_beta   116.07259039
_cell_angle_gamma   89.99999998
_symmetry_Int_Tables_number   1
_chemical_formula_structural   LiRuBr2
_chemical_formula_sum   'Li1 Ru1 Br2'
_cell_volume   97.40953878
_cell_formula_units_Z   1
loop_
 _symmetry_equiv_pos_site_id
 _symmetry_equiv_pos_as_xyz
  1  'x, y, z'
loop_
 _atom_site_type_symbol
 _atom_site_label
 _atom_site_symmetry_multiplicity
 _atom_site_fract_x
 _atom_site_fract_y
 _atom_site_fract_z
 _atom_site_occupancy
  Li  Li0  1  -0.00088325  -0.00000000  -0.00912327  1
  Ru  Ru1  1  0.51606743  0.50000000  0.01204745  1
  Br  Br2  1  0.20980552  0.50000008  0.24873662  1
  Br  Br3  1  0.30601031  -0.00000007  0.75563920  1
