# generated using pymatgen
data_LiSbI2
_symmetry_space_group_name_H-M   'P 1'
_cell_length_a   3.91185417
_cell_length_b   3.85391265
_cell_length_c   9.22198488
_cell_angle_alpha   89.95916412
_cell_angle_beta   96.78639233
_cell_angle_gamma   90.02218505
_symmetry_Int_Tables_number   1
_chemical_formula_structural   LiSbI2
_chemical_formula_sum   'Li1 Sb1 I2'
_cell_volume   138.05598828
_cell_formula_units_Z   1
loop_
 _symmetry_equiv_pos_site_id
 _symmetry_equiv_pos_as_xyz
  1  'x, y, z'
loop_
 _atom_site_type_symbol
 _atom_site_label
 _atom_site_symmetry_multiplicity
 _atom_site_fract_x
 _atom_site_fract_y
 _atom_site_fract_z
 _atom_site_occupancy
  Li  Li0  1  -0.19961055  0.50037174  0.00444701  1
  Sb  Sb1  1  0.21653541  -0.00070073  0.49427103  1
  I  I2  1  0.25178610  0.50014695  0.79247035  1
  I  I3  1  0.20228904  0.00018203  0.17611162  1
