# generated using pymatgen
data_LiSnP
_symmetry_space_group_name_H-M   'P 1'
_cell_length_a   4.75852094
_cell_length_b   4.75852072
_cell_length_c   3.08987023
_cell_angle_alpha   90.00000116
_cell_angle_beta   89.99999482
_cell_angle_gamma   119.99969842
_symmetry_Int_Tables_number   1
_chemical_formula_structural   LiSnP
_chemical_formula_sum   'Li1 Sn1 P1'
_cell_volume   60.59211902
_cell_formula_units_Z   1
loop_
 _symmetry_equiv_pos_site_id
 _symmetry_equiv_pos_as_xyz
  1  'x, y, z'
loop_
 _atom_site_type_symbol
 _atom_site_label
 _atom_site_symmetry_multiplicity
 _atom_site_fract_x
 _atom_site_fract_y
 _atom_site_fract_z
 _atom_site_occupancy
  Li  Li0  1  -0.00000012  0.00000026  0.00000004  1
  Sn  Sn1  1  0.33333299  0.66666689  0.50000003  1
  P  P2  1  0.66666714  0.33333284  0.49999992  1
