# generated using pymatgen
data_LiYBr2
_symmetry_space_group_name_H-M   'P 1'
_cell_length_a   5.94889035
_cell_length_b   3.72867941
_cell_length_c   7.47201778
_cell_angle_alpha   89.99999983
_cell_angle_beta   101.31495899
_cell_angle_gamma   90.00000000
_symmetry_Int_Tables_number   1
_chemical_formula_structural   LiYBr2
_chemical_formula_sum   'Li1 Y1 Br2'
_cell_volume   162.51917692
_cell_formula_units_Z   1
loop_
 _symmetry_equiv_pos_site_id
 _symmetry_equiv_pos_as_xyz
  1  'x, y, z'
loop_
 _atom_site_type_symbol
 _atom_site_label
 _atom_site_symmetry_multiplicity
 _atom_site_fract_x
 _atom_site_fract_y
 _atom_site_fract_z
 _atom_site_occupancy
  Li  Li0  1  0.02055874  -0.00000000  0.02884755  1
  Y  Y1  1  0.52116789  0.50000000  -0.03384335  1
  Br  Br2  1  0.25176200  0.50000000  0.22176149  1
  Br  Br3  1  0.22051137  0.00000000  0.74053432  1
