# generated using pymatgen
data_LiYI2
_symmetry_space_group_name_H-M   'P 1'
_cell_length_a   5.24955937
_cell_length_b   4.04830368
_cell_length_c   8.50746624
_cell_angle_alpha   90.00824956
_cell_angle_beta   108.74592967
_cell_angle_gamma   89.99935109
_symmetry_Int_Tables_number   1
_chemical_formula_structural   LiYI2
_chemical_formula_sum   'Li1 Y1 I2'
_cell_volume   171.20820401
_cell_formula_units_Z   1
loop_
 _symmetry_equiv_pos_site_id
 _symmetry_equiv_pos_as_xyz
  1  'x, y, z'
loop_
 _atom_site_type_symbol
 _atom_site_label
 _atom_site_symmetry_multiplicity
 _atom_site_fract_x
 _atom_site_fract_y
 _atom_site_fract_z
 _atom_site_occupancy
  Li  Li0  1  0.05599064  0.49998744  0.02299673  1
  Y  Y1  1  0.57232266  0.00000024  0.00684446  1
  I  I2  1  0.18827919  0.00002108  0.22455602  1
  I  I3  1  0.19740750  0.49999123  0.75280279  1
