# generated using pymatgen
data_Lu2CS
_symmetry_space_group_name_H-M   'P 1'
_cell_length_a   3.68526132
_cell_length_b   3.68526327
_cell_length_c   6.74471742
_cell_angle_alpha   90.00000166
_cell_angle_beta   90.00001391
_cell_angle_gamma   119.99994615
_symmetry_Int_Tables_number   1
_chemical_formula_structural   Lu2CS
_chemical_formula_sum   'Lu2 C1 S1'
_cell_volume   79.32890034
_cell_formula_units_Z   1
loop_
 _symmetry_equiv_pos_site_id
 _symmetry_equiv_pos_as_xyz
  1  'x, y, z'
loop_
 _atom_site_type_symbol
 _atom_site_label
 _atom_site_symmetry_multiplicity
 _atom_site_fract_x
 _atom_site_fract_y
 _atom_site_fract_z
 _atom_site_occupancy
  Lu  Lu0  1  0.33333314  0.66666694  0.83220231  1
  Lu  Lu1  1  0.66666669  0.33333228  0.21025101  1
  C  C2  1  -0.00000024  0.00000038  0.99141752  1
  S  S3  1  0.33333375  0.66666707  0.44492916  1
