# generated using pymatgen
data_LuAsSe4
_symmetry_space_group_name_H-M   'P 1'
_cell_length_a   4.72346503
_cell_length_b   7.16846628
_cell_length_c   6.88857181
_cell_angle_alpha   119.12577085
_cell_angle_beta   114.42371775
_cell_angle_gamma   85.71918733
_symmetry_Int_Tables_number   1
_chemical_formula_structural   LuAsSe4
_chemical_formula_sum   'Lu1 As1 Se4'
_cell_volume   183.15490007
_cell_formula_units_Z   1
loop_
 _symmetry_equiv_pos_site_id
 _symmetry_equiv_pos_as_xyz
  1  'x, y, z'
loop_
 _atom_site_type_symbol
 _atom_site_label
 _atom_site_symmetry_multiplicity
 _atom_site_fract_x
 _atom_site_fract_y
 _atom_site_fract_z
 _atom_site_occupancy
  Lu  Lu0  1  -0.06770318  0.01552022  0.92328992  1
  As  As1  1  0.43527089  0.47658852  0.43588589  1
  Se  Se2  1  -0.04483377  0.58753507  0.75856255  1
  Se  Se3  1  0.24239099  0.15313161  0.44143968  1
  Se  Se4  1  0.46388600  0.25384267  0.03172234  1
  Se  Se5  1  0.60188907  0.89788191  0.42669962  1
