# generated using pymatgen
data_LuAuF
_symmetry_space_group_name_H-M   'P 1'
_cell_length_a   3.46639040
_cell_length_b   3.43105081
_cell_length_c   5.85945976
_cell_angle_alpha   90.00905970
_cell_angle_beta   90.00714982
_cell_angle_gamma   90.00124487
_symmetry_Int_Tables_number   1
_chemical_formula_structural   LuAuF
_chemical_formula_sum   'Lu1 Au1 F1'
_cell_volume   69.68867218
_cell_formula_units_Z   1
loop_
 _symmetry_equiv_pos_site_id
 _symmetry_equiv_pos_as_xyz
  1  'x, y, z'
loop_
 _atom_site_type_symbol
 _atom_site_label
 _atom_site_symmetry_multiplicity
 _atom_site_fract_x
 _atom_site_fract_y
 _atom_site_fract_z
 _atom_site_occupancy
  Lu  Lu0  1  0.00001448  -0.00000091  -0.06708141  1
  Au  Au1  1  0.49995446  0.49997304  0.65597245  1
  F  F2  1  0.00003106  0.50002787  0.14640897  1
