# generated using pymatgen
data_LuBrF
_symmetry_space_group_name_H-M   'P 1'
_cell_length_a   3.72626838
_cell_length_b   3.23822573
_cell_length_c   4.77137672
_cell_angle_alpha   90.00826262
_cell_angle_beta   89.98979587
_cell_angle_gamma   89.97553214
_symmetry_Int_Tables_number   1
_chemical_formula_structural   LuBrF
_chemical_formula_sum   'Lu1 Br1 F1'
_cell_volume   57.57380151
_cell_formula_units_Z   1
loop_
 _symmetry_equiv_pos_site_id
 _symmetry_equiv_pos_as_xyz
  1  'x, y, z'
loop_
 _atom_site_type_symbol
 _atom_site_label
 _atom_site_symmetry_multiplicity
 _atom_site_fract_x
 _atom_site_fract_y
 _atom_site_fract_z
 _atom_site_occupancy
  Lu  Lu0  1  0.00000001  -0.00000041  -0.00000008  1
  Br  Br1  1  -0.00000004  0.49999957  0.50000011  1
  F  F2  1  0.50000003  0.50000083  -0.00000004  1
