# generated using pymatgen
data_LuCrP
_symmetry_space_group_name_H-M   'P 1'
_cell_length_a   3.56066845
_cell_length_b   3.56066524
_cell_length_c   5.18999420
_cell_angle_alpha   90.00006223
_cell_angle_beta   90.00001236
_cell_angle_gamma   120.00005230
_symmetry_Int_Tables_number   1
_chemical_formula_structural   LuCrP
_chemical_formula_sum   'Lu1 Cr1 P1'
_cell_volume   56.98492186
_cell_formula_units_Z   1
loop_
 _symmetry_equiv_pos_site_id
 _symmetry_equiv_pos_as_xyz
  1  'x, y, z'
loop_
 _atom_site_type_symbol
 _atom_site_label
 _atom_site_symmetry_multiplicity
 _atom_site_fract_x
 _atom_site_fract_y
 _atom_site_fract_z
 _atom_site_occupancy
  Lu  Lu0  1  0.33333320  0.66666649  -0.03071723  1
  Cr  Cr1  1  0.66666675  0.33333338  0.50845887  1
  P  P2  1  0.00000005  0.00000013  0.31555836  1
