# generated using pymatgen
data_LuNbP2
_symmetry_space_group_name_H-M   'P 1'
_cell_length_a   3.74262968
_cell_length_b   3.74262956
_cell_length_c   5.26350384
_cell_angle_alpha   89.99997883
_cell_angle_beta   89.99999075
_cell_angle_gamma   89.99998194
_symmetry_Int_Tables_number   1
_chemical_formula_structural   LuNbP2
_chemical_formula_sum   'Lu1 Nb1 P2'
_cell_volume   73.72735350
_cell_formula_units_Z   1
loop_
 _symmetry_equiv_pos_site_id
 _symmetry_equiv_pos_as_xyz
  1  'x, y, z'
loop_
 _atom_site_type_symbol
 _atom_site_label
 _atom_site_symmetry_multiplicity
 _atom_site_fract_x
 _atom_site_fract_y
 _atom_site_fract_z
 _atom_site_occupancy
  Lu  Lu0  1  0.49999999  0.49999986  0.49999941  1
  Nb  Nb1  1  -0.00000001  0.00000009  0.00000076  1
  P  P2  1  0.00000000  0.00000001  0.50000036  1
  P  P3  1  0.50000002  0.50000004  -0.00000053  1
