# generated using pymatgen
data_LuReAs2
_symmetry_space_group_name_H-M   'P 1'
_cell_length_a   4.57278678
_cell_length_b   4.57278449
_cell_length_c   4.70753949
_cell_angle_alpha   89.99996084
_cell_angle_beta   90.00001591
_cell_angle_gamma   119.99995831
_symmetry_Int_Tables_number   1
_chemical_formula_structural   LuReAs2
_chemical_formula_sum   'Lu1 Re1 As2'
_cell_volume   85.24844607
_cell_formula_units_Z   1
loop_
 _symmetry_equiv_pos_site_id
 _symmetry_equiv_pos_as_xyz
  1  'x, y, z'
loop_
 _atom_site_type_symbol
 _atom_site_label
 _atom_site_symmetry_multiplicity
 _atom_site_fract_x
 _atom_site_fract_y
 _atom_site_fract_z
 _atom_site_occupancy
  Lu  Lu0  1  0.33333301  0.66666688  0.00000104  1
  Re  Re1  1  0.66666671  0.33333301  0.49999965  1
  As  As2  1  0.00000016  0.00000002  0.49999972  1
  As  As3  1  0.66666679  0.33333343  -0.00000040  1
