# generated using pymatgen
data_Mg2NCl
_symmetry_space_group_name_H-M   P-4m2
_cell_length_a   4.04783863
_cell_length_b   4.04783863
_cell_length_c   3.70467650
_cell_angle_alpha   90.00000000
_cell_angle_beta   90.00000000
_cell_angle_gamma   90.00000000
_symmetry_Int_Tables_number   115
_chemical_formula_structural   Mg2NCl
_chemical_formula_sum   'Mg2 N1 Cl1'
_cell_volume   60.70111544
_cell_formula_units_Z   1
loop_
 _symmetry_equiv_pos_site_id
 _symmetry_equiv_pos_as_xyz
  1  'x, y, z'
  2  'y, -x, -z'
  3  '-x, -y, z'
  4  '-y, x, -z'
  5  '-x, y, z'
  6  '-y, -x, -z'
  7  'x, -y, z'
  8  'y, x, -z'
loop_
 _atom_site_type_symbol
 _atom_site_label
 _atom_site_symmetry_multiplicity
 _atom_site_fract_x
 _atom_site_fract_y
 _atom_site_fract_z
 _atom_site_occupancy
  Mg  Mg0  2  0.00000000  0.50000000  0.38434528  1
  N  N1  1  0.50000000  0.50000000  0.50000000  1
  Cl  Cl2  1  0.00000000  0.00000000  0.00000000  1
