# generated using pymatgen
data_MgAs2Pd
_symmetry_space_group_name_H-M   'P 1'
_cell_length_a   4.03283722
_cell_length_b   4.28215288
_cell_length_c   4.90280385
_cell_angle_alpha   90.00000477
_cell_angle_beta   114.74693754
_cell_angle_gamma   89.99999563
_symmetry_Int_Tables_number   1
_chemical_formula_structural   MgAs2Pd
_chemical_formula_sum   'Mg1 As2 Pd1'
_cell_volume   76.89222063
_cell_formula_units_Z   1
loop_
 _symmetry_equiv_pos_site_id
 _symmetry_equiv_pos_as_xyz
  1  'x, y, z'
loop_
 _atom_site_type_symbol
 _atom_site_label
 _atom_site_symmetry_multiplicity
 _atom_site_fract_x
 _atom_site_fract_y
 _atom_site_fract_z
 _atom_site_occupancy
  Mg  Mg0  1  0.52411299  0.00000004  0.38653021  1
  As  As1  1  0.21608404  0.50000006  0.85743902  1
  As  As2  1  0.83351720  -0.00000005  -0.03353820  1
  Pd  Pd3  1  0.92618577  0.49999996  0.28956897  1
