# generated using pymatgen
data_MgCuP
_symmetry_space_group_name_H-M   'P 1'
_cell_length_a   3.86948999
_cell_length_b   3.86948946
_cell_length_c   3.71415004
_cell_angle_alpha   90.00000427
_cell_angle_beta   89.99998203
_cell_angle_gamma   120.00016267
_symmetry_Int_Tables_number   1
_chemical_formula_structural   MgCuP
_chemical_formula_sum   'Mg1 Cu1 P1'
_cell_volume   48.16114011
_cell_formula_units_Z   1
loop_
 _symmetry_equiv_pos_site_id
 _symmetry_equiv_pos_as_xyz
  1  'x, y, z'
loop_
 _atom_site_type_symbol
 _atom_site_label
 _atom_site_symmetry_multiplicity
 _atom_site_fract_x
 _atom_site_fract_y
 _atom_site_fract_z
 _atom_site_occupancy
  Mg  Mg0  1  0.66666672  0.33333344  -0.00000003  1
  Cu  Cu1  1  -0.00000046  0.00000026  0.50000005  1
  P  P2  1  0.33333374  0.66666631  0.49999998  1
