# generated using pymatgen
data_MgMnS2
_symmetry_space_group_name_H-M   'P 1'
_cell_length_a   3.85264416
_cell_length_b   3.85264413
_cell_length_c   6.35859487
_cell_angle_alpha   89.99999559
_cell_angle_beta   90.00000562
_cell_angle_gamma   120.00022902
_symmetry_Int_Tables_number   1
_chemical_formula_structural   MgMnS2
_chemical_formula_sum   'Mg1 Mn1 S2'
_cell_volume   81.73509610
_cell_formula_units_Z   1
loop_
 _symmetry_equiv_pos_site_id
 _symmetry_equiv_pos_as_xyz
  1  'x, y, z'
loop_
 _atom_site_type_symbol
 _atom_site_label
 _atom_site_symmetry_multiplicity
 _atom_site_fract_x
 _atom_site_fract_y
 _atom_site_fract_z
 _atom_site_occupancy
  Mg  Mg0  1  0.00000018  -0.00000020  0.16296987  1
  Mn  Mn1  1  0.33333336  0.66666665  0.69902064  1
  S  S2  1  0.33333321  0.66666680  0.33242475  1
  S  S3  1  0.66666658  0.33333341  0.86828475  1
