# generated using pymatgen
data_MgSbAu
_symmetry_space_group_name_H-M   'P 1'
_cell_length_a   4.49803911
_cell_length_b   4.49803907
_cell_length_c   4.02728736
_cell_angle_alpha   90.00062264
_cell_angle_beta   89.99939635
_cell_angle_gamma   120.00058114
_symmetry_Int_Tables_number   1
_chemical_formula_structural   MgSbAu
_chemical_formula_sum   'Mg1 Sb1 Au1'
_cell_volume   70.56464453
_cell_formula_units_Z   1
loop_
 _symmetry_equiv_pos_site_id
 _symmetry_equiv_pos_as_xyz
  1  'x, y, z'
loop_
 _atom_site_type_symbol
 _atom_site_label
 _atom_site_symmetry_multiplicity
 _atom_site_fract_x
 _atom_site_fract_y
 _atom_site_fract_z
 _atom_site_occupancy
  Mg  Mg0  1  0.66666669  0.33333343  0.29091962  1
  Sb  Sb1  1  0.33333292  0.66666694  0.78080393  1
  Au  Au2  1  0.00000039  -0.00000037  0.02827645  1
