# generated using pymatgen
data_MgSiRh
_symmetry_space_group_name_H-M   'P 1'
_cell_length_a   4.13818618
_cell_length_b   4.13818596
_cell_length_c   3.15410364
_cell_angle_alpha   89.99999383
_cell_angle_beta   89.99999922
_cell_angle_gamma   120.00024407
_symmetry_Int_Tables_number   1
_chemical_formula_structural   MgSiRh
_chemical_formula_sum   'Mg1 Si1 Rh1'
_cell_volume   46.77626620
_cell_formula_units_Z   1
loop_
 _symmetry_equiv_pos_site_id
 _symmetry_equiv_pos_as_xyz
  1  'x, y, z'
loop_
 _atom_site_type_symbol
 _atom_site_label
 _atom_site_symmetry_multiplicity
 _atom_site_fract_x
 _atom_site_fract_y
 _atom_site_fract_z
 _atom_site_occupancy
  Mg  Mg0  1  -0.00000008  0.00000004  0.00000001  1
  Si  Si1  1  0.33333343  0.66666655  0.49999999  1
  Rh  Rh2  1  0.66666665  0.33333341  0.50000000  1
