# generated using pymatgen
data_MgSnPb2
_symmetry_space_group_name_H-M   Pmm2
_cell_length_a   3.52670040
_cell_length_b   4.50920505
_cell_length_c   7.17130094
_cell_angle_alpha   90.00000000
_cell_angle_beta   90.00000000
_cell_angle_gamma   90.00000000
_symmetry_Int_Tables_number   25
_chemical_formula_structural   MgSnPb2
_chemical_formula_sum   'Mg1 Sn1 Pb2'
_cell_volume   114.04243972
_cell_formula_units_Z   1
loop_
 _symmetry_equiv_pos_site_id
 _symmetry_equiv_pos_as_xyz
  1  'x, y, z'
  2  '-x, -y, z'
  3  '-x, y, z'
  4  'x, -y, z'
loop_
 _atom_site_type_symbol
 _atom_site_label
 _atom_site_symmetry_multiplicity
 _atom_site_fract_x
 _atom_site_fract_y
 _atom_site_fract_z
 _atom_site_occupancy
  Mg  Mg0  1  0.50000000  0.00000000  0.73883392  1
  Sn  Sn1  1  0.00000000  0.50000000  0.52076421  1
  Pb  Pb2  1  0.00000000  0.50000000  0.97480212  1
  Pb  Pb3  1  0.50000000  0.00000000  0.26549974  1
