# generated using pymatgen
data_MgZnCl2
_symmetry_space_group_name_H-M   'P 1'
_cell_length_a   6.15332200
_cell_length_b   3.80553322
_cell_length_c   6.81410247
_cell_angle_alpha   84.95462982
_cell_angle_beta   123.08074258
_cell_angle_gamma   77.95771056
_symmetry_Int_Tables_number   1
_chemical_formula_structural   MgZnCl2
_chemical_formula_sum   'Mg1 Zn1 Cl2'
_cell_volume   126.72888803
_cell_formula_units_Z   1
loop_
 _symmetry_equiv_pos_site_id
 _symmetry_equiv_pos_as_xyz
  1  'x, y, z'
loop_
 _atom_site_type_symbol
 _atom_site_label
 _atom_site_symmetry_multiplicity
 _atom_site_fract_x
 _atom_site_fract_y
 _atom_site_fract_z
 _atom_site_occupancy
  Mg  Mg0  1  0.04599601  0.58008939  0.36136655  1
  Zn  Zn1  1  0.53370568  -0.04620268  0.02680263  1
  Cl  Cl2  1  0.29500604  -0.00178497  0.36859558  1
  Cl  Cl3  1  0.12629226  0.46789826  0.75093525  1
