# generated using pymatgen
data_MnAuBr2
_symmetry_space_group_name_H-M   'P 1'
_cell_length_a   4.90899892
_cell_length_b   3.74355422
_cell_length_c   7.61122013
_cell_angle_alpha   90.00150281
_cell_angle_beta   124.44442289
_cell_angle_gamma   89.99600689
_symmetry_Int_Tables_number   1
_chemical_formula_structural   MnAuBr2
_chemical_formula_sum   'Mn1 Au1 Br2'
_cell_volume   115.34912107
_cell_formula_units_Z   1
loop_
 _symmetry_equiv_pos_site_id
 _symmetry_equiv_pos_as_xyz
  1  'x, y, z'
loop_
 _atom_site_type_symbol
 _atom_site_label
 _atom_site_symmetry_multiplicity
 _atom_site_fract_x
 _atom_site_fract_y
 _atom_site_fract_z
 _atom_site_occupancy
  Mn  Mn0  1  0.02497595  -0.00000166  0.36289409  1
  Au  Au1  1  -0.23932654  0.49999782  0.06581424  1
  Br  Br2  1  0.41513249  -0.00000100  0.24365144  1
  Br  Br3  1  0.25491810  0.50000483  0.65174023  1
