# generated using pymatgen
data_MnBiSe2
_symmetry_space_group_name_H-M   'P 1'
_cell_length_a   3.63895009
_cell_length_b   3.63895787
_cell_length_c   8.41462826
_cell_angle_alpha   89.99912171
_cell_angle_beta   90.00092650
_cell_angle_gamma   119.99979248
_symmetry_Int_Tables_number   1
_chemical_formula_structural   MnBiSe2
_chemical_formula_sum   'Mn1 Bi1 Se2'
_cell_volume   96.49828638
_cell_formula_units_Z   1
loop_
 _symmetry_equiv_pos_site_id
 _symmetry_equiv_pos_as_xyz
  1  'x, y, z'
loop_
 _atom_site_type_symbol
 _atom_site_label
 _atom_site_symmetry_multiplicity
 _atom_site_fract_x
 _atom_site_fract_y
 _atom_site_fract_z
 _atom_site_occupancy
  Mn  Mn0  1  -0.00000537  0.00000841  0.37805253  1
  Bi  Bi1  1  0.33334636  0.66665260  -0.11462142  1
  Se  Se2  1  0.33333509  0.66666418  0.54700207  1
  Se  Se3  1  0.66665726  0.33334148  0.20776682  1
