# generated using pymatgen
data_MnCoSi
_symmetry_space_group_name_H-M   'P 1'
_cell_length_a   3.89186826
_cell_length_b   3.89186861
_cell_length_c   2.63578142
_cell_angle_alpha   90.00000115
_cell_angle_beta   90.00000000
_cell_angle_gamma   120.00001578
_symmetry_Int_Tables_number   1
_chemical_formula_structural   MnCoSi
_chemical_formula_sum   'Mn1 Co1 Si1'
_cell_volume   34.57452769
_cell_formula_units_Z   1
loop_
 _symmetry_equiv_pos_site_id
 _symmetry_equiv_pos_as_xyz
  1  'x, y, z'
loop_
 _atom_site_type_symbol
 _atom_site_label
 _atom_site_symmetry_multiplicity
 _atom_site_fract_x
 _atom_site_fract_y
 _atom_site_fract_z
 _atom_site_occupancy
  Mn  Mn0  1  0.66666670  0.33333331  0.00000005  1
  Co  Co1  1  0.00000003  -0.00000001  0.49999998  1
  Si  Si2  1  0.33333327  0.66666670  0.49999998  1
