# generated using pymatgen
data_MnSbS2
_symmetry_space_group_name_H-M   'P 1'
_cell_length_a   4.82352665
_cell_length_b   3.59050570
_cell_length_c   7.09248083
_cell_angle_alpha   90.00000367
_cell_angle_beta   83.49508312
_cell_angle_gamma   89.99999771
_symmetry_Int_Tables_number   1
_chemical_formula_structural   MnSbS2
_chemical_formula_sum   'Mn1 Sb1 S2'
_cell_volume   122.04317753
_cell_formula_units_Z   1
loop_
 _symmetry_equiv_pos_site_id
 _symmetry_equiv_pos_as_xyz
  1  'x, y, z'
loop_
 _atom_site_type_symbol
 _atom_site_label
 _atom_site_symmetry_multiplicity
 _atom_site_fract_x
 _atom_site_fract_y
 _atom_site_fract_z
 _atom_site_occupancy
  Mn  Mn0  1  -0.01376028  0.50000004  0.05302419  1
  Sb  Sb1  1  0.54789130  0.00000008  -0.04283913  1
  S  S2  1  0.16958987  0.00000005  0.22598445  1
  S  S3  1  0.28197912  0.49999982  0.76053048  1
