# generated using pymatgen
data_MnSiP
_symmetry_space_group_name_H-M   'P 1'
_cell_length_a   3.84767049
_cell_length_b   3.84767060
_cell_length_c   2.92393667
_cell_angle_alpha   89.99999698
_cell_angle_beta   90.00000271
_cell_angle_gamma   119.99999051
_symmetry_Int_Tables_number   1
_chemical_formula_structural   MnSiP
_chemical_formula_sum   'Mn1 Si1 P1'
_cell_volume   37.48818312
_cell_formula_units_Z   1
loop_
 _symmetry_equiv_pos_site_id
 _symmetry_equiv_pos_as_xyz
  1  'x, y, z'
loop_
 _atom_site_type_symbol
 _atom_site_label
 _atom_site_symmetry_multiplicity
 _atom_site_fract_x
 _atom_site_fract_y
 _atom_site_fract_z
 _atom_site_occupancy
  Mn  Mn0  1  -0.00000000  0.00000003  0.00000000  1
  Si  Si1  1  0.33333337  0.66666662  0.50000000  1
  P  P2  1  0.66666663  0.33333335  0.00000000  1
