# generated using pymatgen
data_MoClO
_symmetry_space_group_name_H-M   Pm
_cell_length_a   3.85827553
_cell_length_b   4.86169704
_cell_length_c   4.37324624
_cell_angle_alpha   90.00000000
_cell_angle_beta   112.32023086
_cell_angle_gamma   90.00000000
_symmetry_Int_Tables_number   6
_chemical_formula_structural   MoClO
_chemical_formula_sum   'Mo1 Cl1 O1'
_cell_volume   75.88611575
_cell_formula_units_Z   1
loop_
 _symmetry_equiv_pos_site_id
 _symmetry_equiv_pos_as_xyz
  1  'x, y, z'
  2  'x, -y, z'
loop_
 _atom_site_type_symbol
 _atom_site_label
 _atom_site_symmetry_multiplicity
 _atom_site_fract_x
 _atom_site_fract_y
 _atom_site_fract_z
 _atom_site_occupancy
  Mo  Mo0  1  0.31544820  0.50000000  0.39005182  1
  Cl  Cl1  1  0.24316503  0.00000000  0.22212664  1
  O  O2  1  0.82108677  0.50000000  0.40302153  1
