# generated using pymatgen
data_MoHCl
_symmetry_space_group_name_H-M   'P 1'
_cell_length_a   3.11977052
_cell_length_b   3.11977061
_cell_length_c   4.40969253
_cell_angle_alpha   90.00000001
_cell_angle_beta   90.00000138
_cell_angle_gamma   119.99999869
_symmetry_Int_Tables_number   1
_chemical_formula_structural   MoHCl
_chemical_formula_sum   'Mo1 H1 Cl1'
_cell_volume   37.16928939
_cell_formula_units_Z   1
loop_
 _symmetry_equiv_pos_site_id
 _symmetry_equiv_pos_as_xyz
  1  'x, y, z'
loop_
 _atom_site_type_symbol
 _atom_site_label
 _atom_site_symmetry_multiplicity
 _atom_site_fract_x
 _atom_site_fract_y
 _atom_site_fract_z
 _atom_site_occupancy
  Mo  Mo0  1  0.33333333  0.66666664  -0.00000004  1
  H  H1  1  0.66666666  0.33333333  0.00000001  1
  Cl  Cl2  1  0.00000001  0.00000003  0.50000003  1
