# generated using pymatgen
data_MoPbI2
_symmetry_space_group_name_H-M   'P 1'
_cell_length_a   4.44806751
_cell_length_b   3.64458327
_cell_length_c   8.83408940
_cell_angle_alpha   90.00258662
_cell_angle_beta   93.10324693
_cell_angle_gamma   89.99951387
_symmetry_Int_Tables_number   1
_chemical_formula_structural   MoPbI2
_chemical_formula_sum   'Mo1 Pb1 I2'
_cell_volume   143.00253034
_cell_formula_units_Z   1
loop_
 _symmetry_equiv_pos_site_id
 _symmetry_equiv_pos_as_xyz
  1  'x, y, z'
loop_
 _atom_site_type_symbol
 _atom_site_label
 _atom_site_symmetry_multiplicity
 _atom_site_fract_x
 _atom_site_fract_y
 _atom_site_fract_z
 _atom_site_occupancy
  Mo  Mo0  1  0.39416643  0.49998284  -0.06668484  1
  Pb  Pb1  1  -0.10091810  0.00000884  -0.01861719  1
  I  I2  1  0.38604036  0.49999545  0.24459013  1
  I  I3  1  0.36871131  0.00001287  0.69201190  1
