# generated using pymatgen
data_MoPRh
_symmetry_space_group_name_H-M   P4mm
_cell_length_a   2.58992926
_cell_length_b   2.58992926
_cell_length_c   7.27405351
_cell_angle_alpha   90.00000000
_cell_angle_beta   90.00000000
_cell_angle_gamma   90.00000000
_symmetry_Int_Tables_number   99
_chemical_formula_structural   MoPRh
_chemical_formula_sum   'Mo1 P1 Rh1'
_cell_volume   48.79241293
_cell_formula_units_Z   1
loop_
 _symmetry_equiv_pos_site_id
 _symmetry_equiv_pos_as_xyz
  1  'x, y, z'
  2  '-y, x, z'
  3  '-x, -y, z'
  4  'y, -x, z'
  5  '-x, y, z'
  6  'y, x, z'
  7  'x, -y, z'
  8  '-y, -x, z'
loop_
 _atom_site_type_symbol
 _atom_site_label
 _atom_site_symmetry_multiplicity
 _atom_site_fract_x
 _atom_site_fract_y
 _atom_site_fract_z
 _atom_site_occupancy
  Mo  Mo0  1  0.00000000  0.00000000  0.00602753  1
  P  P1  1  0.00000000  0.00000000  0.34016768  1
  Rh  Rh2  1  0.00000000  0.00000000  0.65370479  1
