# generated using pymatgen
data_Na2TlAs
_symmetry_space_group_name_H-M   'P 1'
_cell_length_a   3.77923380
_cell_length_b   4.86861287
_cell_length_c   5.61821746
_cell_angle_alpha   90.00002888
_cell_angle_beta   97.58355170
_cell_angle_gamma   89.99994797
_symmetry_Int_Tables_number   1
_chemical_formula_structural   Na2TlAs
_chemical_formula_sum   'Na2 Tl1 As1'
_cell_volume   102.46894565
_cell_formula_units_Z   1
loop_
 _symmetry_equiv_pos_site_id
 _symmetry_equiv_pos_as_xyz
  1  'x, y, z'
loop_
 _atom_site_type_symbol
 _atom_site_label
 _atom_site_symmetry_multiplicity
 _atom_site_fract_x
 _atom_site_fract_y
 _atom_site_fract_z
 _atom_site_occupancy
  Na  Na0  1  0.80901736  0.50000011  0.31754068  1
  Na  Na1  1  0.93753661  -0.00000014  0.92479739  1
  Tl  Tl2  1  0.35343580  0.00000003  0.46093976  1
  As  As3  1  0.40001023  0.49999999  0.79672217  1
