# generated using pymatgen
data_Na5Br8
_symmetry_space_group_name_H-M   Pm
_cell_length_a   9.45497003
_cell_length_b   5.70327583
_cell_length_c   10.05878387
_cell_angle_alpha   90.00000000
_cell_angle_beta   112.09730843
_cell_angle_gamma   90.00000000
_symmetry_Int_Tables_number   6
_chemical_formula_structural   Na5Br8
_chemical_formula_sum   'Na5 Br8'
_cell_volume   502.57066731
_cell_formula_units_Z   1
loop_
 _symmetry_equiv_pos_site_id
 _symmetry_equiv_pos_as_xyz
  1  'x, y, z'
  2  'x, -y, z'
loop_
 _atom_site_type_symbol
 _atom_site_label
 _atom_site_symmetry_multiplicity
 _atom_site_fract_x
 _atom_site_fract_y
 _atom_site_fract_z
 _atom_site_occupancy
  Na  Na0  1  0.20204833  0.00000000  0.19208084  1
  Na  Na1  1  0.52645908  0.50000000  0.32111143  1
  Na  Na2  1  0.61929719  0.00000000  0.07409718  1
  Na  Na3  1  0.75163532  0.00000000  0.61256145  1
  Na  Na4  1  0.88554930  0.50000000  0.96702651  1
  Br  Br5  1  0.16289015  0.00000000  0.84868120  1
  Br  Br6  1  0.18513269  0.50000000  0.20447979  1
  Br  Br7  1  0.37804781  0.00000000  0.77370737  1
  Br  Br8  1  0.52845435  0.00000000  0.32223786  1
  Br  Br9  1  0.60560784  0.50000000  0.68297621  1
  Br  Br10  1  0.67334585  0.50000000  0.10723147  1
  Br  Br11  1  0.84359427  0.50000000  0.56392603  1
  Br  Br12  1  0.90653787  0.00000000  0.92958270  1
