# generated using pymatgen
data_Na5Cl8
_symmetry_space_group_name_H-M   Pm
_cell_length_a   8.00916189
_cell_length_b   5.31493034
_cell_length_c   8.71015858
_cell_angle_alpha   90.00000000
_cell_angle_beta   105.82309020
_cell_angle_gamma   90.00000000
_symmetry_Int_Tables_number   6
_chemical_formula_structural   Na5Cl8
_chemical_formula_sum   'Na5 Cl8'
_cell_volume   356.72588265
_cell_formula_units_Z   1
loop_
 _symmetry_equiv_pos_site_id
 _symmetry_equiv_pos_as_xyz
  1  'x, y, z'
  2  'x, -y, z'
loop_
 _atom_site_type_symbol
 _atom_site_label
 _atom_site_symmetry_multiplicity
 _atom_site_fract_x
 _atom_site_fract_y
 _atom_site_fract_z
 _atom_site_occupancy
  Na  Na0  1  0.41924330  0.50000000  0.01866271  1
  Na  Na1  1  0.47070926  0.00000000  0.47538203  1
  Na  Na2  1  0.80819549  0.00000000  0.97931471  1
  Na  Na3  1  0.87752802  0.50000000  0.69038572  1
  Na  Na4  1  0.99333552  0.00000000  0.43395017  1
  Cl  Cl5  1  0.16967081  0.00000000  0.20207504  1
  Cl  Cl6  1  0.17916242  0.50000000  0.20060714  1
  Cl  Cl7  1  0.23816548  0.50000000  0.68893433  1
  Cl  Cl8  1  0.26974123  0.00000000  0.69360515  1
  Cl  Cl9  1  0.66216487  0.00000000  0.25271022  1
  Cl  Cl10  1  0.68114525  0.50000000  0.30771820  1
  Cl  Cl11  1  0.70799168  0.50000000  0.91441250  1
  Cl  Cl12  1  0.80974668  0.00000000  0.66144206  1
