# generated using pymatgen
data_Na5Se8
_symmetry_space_group_name_H-M   P1
_cell_length_a   6.01202394
_cell_length_b   6.08794344
_cell_length_c   9.03666806
_cell_angle_alpha   90.12840841
_cell_angle_beta   99.72666387
_cell_angle_gamma   91.81314433
_symmetry_Int_Tables_number   1
_chemical_formula_structural   Na5Se8
_chemical_formula_sum   'Na5 Se8'
_cell_volume   325.82241408
_cell_formula_units_Z   1
loop_
 _symmetry_equiv_pos_site_id
 _symmetry_equiv_pos_as_xyz
  1  'x, y, z'
loop_
 _atom_site_type_symbol
 _atom_site_label
 _atom_site_symmetry_multiplicity
 _atom_site_fract_x
 _atom_site_fract_y
 _atom_site_fract_z
 _atom_site_occupancy
  Na  Na0  1  0.22702836  0.24752636  0.26148588  1
  Na  Na1  1  0.39592106  0.95837268  0.85896097  1
  Na  Na2  1  0.77525402  0.73289061  0.29000917  1
  Na  Na3  1  0.84128231  0.74537366  0.73753286  1
  Na  Na4  1  0.91446082  0.26696383  0.77296989  1
  Se  Se5  1  0.09480116  0.01169428  0.53743271  1
  Se  Se6  1  0.10428804  0.48860357  0.52784326  1
  Se  Se7  1  0.12419584  0.60313548  0.00689809  1
  Se  Se8  1  0.45280871  0.44797604  0.90038162  1
  Se  Se9  1  0.55885691  0.01514073  0.52857366  1
  Se  Se10  1  0.56084845  0.47256876  0.51882457  1
  Se  Se11  1  0.65109034  0.27898884  0.11998526  1
  Se  Se12  1  0.92716398  0.97876517  0.03250205  1
