# generated using pymatgen
data_NaCaP
_symmetry_space_group_name_H-M   'P 1'
_cell_length_a   4.53269977
_cell_length_b   4.53268306
_cell_length_c   4.86567320
_cell_angle_alpha   90.00080563
_cell_angle_beta   89.99983309
_cell_angle_gamma   120.00020967
_symmetry_Int_Tables_number   1
_chemical_formula_structural   NaCaP
_chemical_formula_sum   'Na1 Ca1 P1'
_cell_volume   86.57349638
_cell_formula_units_Z   1
loop_
 _symmetry_equiv_pos_site_id
 _symmetry_equiv_pos_as_xyz
  1  'x, y, z'
loop_
 _atom_site_type_symbol
 _atom_site_label
 _atom_site_symmetry_multiplicity
 _atom_site_fract_x
 _atom_site_fract_y
 _atom_site_fract_z
 _atom_site_occupancy
  Na  Na0  1  0.66666587  0.33333081  0.43709947  1
  Ca  Ca1  1  0.00000063  0.00000220  0.88708041  1
  P  P2  1  0.33333350  0.66666699  0.67582012  1
