# generated using pymatgen
data_NaDyF
_symmetry_space_group_name_H-M   'P 1'
_cell_length_a   3.75746192
_cell_length_b   3.48539636
_cell_length_c   5.84403629
_cell_angle_alpha   89.99999816
_cell_angle_beta   90.00000957
_cell_angle_gamma   89.99999082
_symmetry_Int_Tables_number   1
_chemical_formula_structural   NaDyF
_chemical_formula_sum   'Na1 Dy1 F1'
_cell_volume   76.53492578
_cell_formula_units_Z   1
loop_
 _symmetry_equiv_pos_site_id
 _symmetry_equiv_pos_as_xyz
  1  'x, y, z'
loop_
 _atom_site_type_symbol
 _atom_site_label
 _atom_site_symmetry_multiplicity
 _atom_site_fract_x
 _atom_site_fract_y
 _atom_site_fract_z
 _atom_site_occupancy
  Na  Na0  1  -0.00000001  -0.00000001  -0.02256630  1
  Dy  Dy1  1  0.49999991  0.49999999  0.49282643  1
  F  F2  1  0.00000011  0.50000001  0.29003987  1
