# generated using pymatgen
data_NaGaO
_symmetry_space_group_name_H-M   'P 1'
_cell_length_a   3.47448811
_cell_length_b   3.47448866
_cell_length_c   6.02508378
_cell_angle_alpha   89.99999399
_cell_angle_beta   90.00000328
_cell_angle_gamma   120.00024215
_symmetry_Int_Tables_number   1
_chemical_formula_structural   NaGaO
_chemical_formula_sum   'Na1 Ga1 O1'
_cell_volume   62.99040349
_cell_formula_units_Z   1
loop_
 _symmetry_equiv_pos_site_id
 _symmetry_equiv_pos_as_xyz
  1  'x, y, z'
loop_
 _atom_site_type_symbol
 _atom_site_label
 _atom_site_symmetry_multiplicity
 _atom_site_fract_x
 _atom_site_fract_y
 _atom_site_fract_z
 _atom_site_occupancy
  Na  Na0  1  -0.00000005  0.00000006  0.00000007  1
  Ga  Ga1  1  0.00000009  0.00000001  0.49999973  1
  O  O2  1  0.33333329  0.66666659  0.50000020  1
