# generated using pymatgen
data_NaHoCl
_symmetry_space_group_name_H-M   'P 1'
_cell_length_a   3.47153613
_cell_length_b   3.51518409
_cell_length_c   7.35743842
_cell_angle_alpha   90.00014169
_cell_angle_beta   90.00014114
_cell_angle_gamma   90.00647840
_symmetry_Int_Tables_number   1
_chemical_formula_structural   NaHoCl
_chemical_formula_sum   'Na1 Ho1 Cl1'
_cell_volume   89.78347190
_cell_formula_units_Z   1
loop_
 _symmetry_equiv_pos_site_id
 _symmetry_equiv_pos_as_xyz
  1  'x, y, z'
loop_
 _atom_site_type_symbol
 _atom_site_label
 _atom_site_symmetry_multiplicity
 _atom_site_fract_x
 _atom_site_fract_y
 _atom_site_fract_z
 _atom_site_occupancy
  Na  Na0  1  0.00000149  0.00000019  -0.05641250  1
  Ho  Ho1  1  0.50000293  0.49999973  0.55055920  1
  Cl  Cl2  1  -0.00000443  0.50000008  0.26615330  1
