# generated using pymatgen
data_NaMgN
_symmetry_space_group_name_H-M   'P 1'
_cell_length_a   3.83435244
_cell_length_b   3.83435166
_cell_length_c   3.38093857
_cell_angle_alpha   90.00000607
_cell_angle_beta   90.00000874
_cell_angle_gamma   120.00016145
_symmetry_Int_Tables_number   1
_chemical_formula_structural   NaMgN
_chemical_formula_sum   'Na1 Mg1 N1'
_cell_volume   43.04782116
_cell_formula_units_Z   1
loop_
 _symmetry_equiv_pos_site_id
 _symmetry_equiv_pos_as_xyz
  1  'x, y, z'
loop_
 _atom_site_type_symbol
 _atom_site_label
 _atom_site_symmetry_multiplicity
 _atom_site_fract_x
 _atom_site_fract_y
 _atom_site_fract_z
 _atom_site_occupancy
  Na  Na0  1  -0.00000023  0.00000009  0.50000010  1
  Mg  Mg1  1  0.33333290  0.66666710  -0.00000004  1
  N  N2  1  0.66666732  0.33333281  0.49999994  1
