# generated using pymatgen
data_NaScBr2
_symmetry_space_group_name_H-M   'P 1'
_cell_length_a   6.52184065
_cell_length_b   3.65300078
_cell_length_c   7.78659908
_cell_angle_alpha   89.99973419
_cell_angle_beta   97.24891990
_cell_angle_gamma   89.99995277
_symmetry_Int_Tables_number   1
_chemical_formula_structural   NaScBr2
_chemical_formula_sum   'Na1 Sc1 Br2'
_cell_volume   184.02746482
_cell_formula_units_Z   1
loop_
 _symmetry_equiv_pos_site_id
 _symmetry_equiv_pos_as_xyz
  1  'x, y, z'
loop_
 _atom_site_type_symbol
 _atom_site_label
 _atom_site_symmetry_multiplicity
 _atom_site_fract_x
 _atom_site_fract_y
 _atom_site_fract_z
 _atom_site_occupancy
  Na  Na0  1  -0.02995627  -0.00000090  0.03619991  1
  Sc  Sc1  1  0.49067236  0.49999888  -0.05441286  1
  Br  Br2  1  0.30340028  0.49999845  0.20971502  1
  Br  Br3  1  0.28788363  0.00000357  0.73619793  1
