# generated using pymatgen
data_NaScI2
_symmetry_space_group_name_H-M   'P 1'
_cell_length_a   6.51414392
_cell_length_b   3.94543889
_cell_length_c   8.49061391
_cell_angle_alpha   90.01116400
_cell_angle_beta   96.62891413
_cell_angle_gamma   90.00686603
_symmetry_Int_Tables_number   1
_chemical_formula_structural   NaScI2
_chemical_formula_sum   'Na1 Sc1 I2'
_cell_volume   216.75972173
_cell_formula_units_Z   1
loop_
 _symmetry_equiv_pos_site_id
 _symmetry_equiv_pos_as_xyz
  1  'x, y, z'
loop_
 _atom_site_type_symbol
 _atom_site_label
 _atom_site_symmetry_multiplicity
 _atom_site_fract_x
 _atom_site_fract_y
 _atom_site_fract_z
 _atom_site_occupancy
  Na  Na0  1  -0.04842676  0.50000508  0.05509002  1
  Sc  Sc1  1  0.48847786  -0.00004209  -0.03609179  1
  I  I2  1  0.30628239  0.00002628  0.23882249  1
  I  I3  1  0.28466651  0.50001073  0.74987928  1
