# generated using pymatgen
data_NaSmAs
_symmetry_space_group_name_H-M   'P 1'
_cell_length_a   4.57917164
_cell_length_b   4.57917167
_cell_length_c   4.03523387
_cell_angle_alpha   89.99999938
_cell_angle_beta   90.00000000
_cell_angle_gamma   120.00006673
_symmetry_Int_Tables_number   1
_chemical_formula_structural   NaSmAs
_chemical_formula_sum   'Na1 Sm1 As1'
_cell_volume   73.27788015
_cell_formula_units_Z   1
loop_
 _symmetry_equiv_pos_site_id
 _symmetry_equiv_pos_as_xyz
  1  'x, y, z'
loop_
 _atom_site_type_symbol
 _atom_site_label
 _atom_site_symmetry_multiplicity
 _atom_site_fract_x
 _atom_site_fract_y
 _atom_site_fract_z
 _atom_site_occupancy
  Na  Na0  1  0.33333327  0.66666673  -0.00000000  1
  Sm  Sm1  1  0.66666662  0.33333337  0.50000000  1
  As  As2  1  0.00000011  -0.00000010  -0.00000000  1
