# generated using pymatgen
data_NbAgS
_symmetry_space_group_name_H-M   'P 1'
_cell_length_a   3.16410114
_cell_length_b   3.16410064
_cell_length_c   6.48707567
_cell_angle_alpha   90.00006351
_cell_angle_beta   89.99987335
_cell_angle_gamma   119.99988688
_symmetry_Int_Tables_number   1
_chemical_formula_structural   NbAgS
_chemical_formula_sum   'Nb1 Ag1 S1'
_cell_volume   56.24458749
_cell_formula_units_Z   1
loop_
 _symmetry_equiv_pos_site_id
 _symmetry_equiv_pos_as_xyz
  1  'x, y, z'
loop_
 _atom_site_type_symbol
 _atom_site_label
 _atom_site_symmetry_multiplicity
 _atom_site_fract_x
 _atom_site_fract_y
 _atom_site_fract_z
 _atom_site_occupancy
  Nb  Nb0  1  -0.00000011  -0.00000005  0.56464741  1
  Ag  Ag1  1  0.33333224  0.66666701  -0.07889169  1
  S  S2  1  0.33333454  0.66666638  0.31554428  1
