# generated using pymatgen
data_NbAsS2
_symmetry_space_group_name_H-M   'P 1'
_cell_length_a   3.20769812
_cell_length_b   3.20777082
_cell_length_c   12.63322521
_cell_angle_alpha   89.99966185
_cell_angle_beta   89.99945091
_cell_angle_gamma   120.00149933
_symmetry_Int_Tables_number   1
_chemical_formula_structural   NbAsS2
_chemical_formula_sum   'Nb1 As1 S2'
_cell_volume   112.57323086
_cell_formula_units_Z   1
loop_
 _symmetry_equiv_pos_site_id
 _symmetry_equiv_pos_as_xyz
  1  'x, y, z'
loop_
 _atom_site_type_symbol
 _atom_site_label
 _atom_site_symmetry_multiplicity
 _atom_site_fract_x
 _atom_site_fract_y
 _atom_site_fract_z
 _atom_site_occupancy
  Nb  Nb0  1  0.00000584  -0.00000123  0.50014374  1
  As  As1  1  0.66665737  0.33333201  0.00596808  1
  S  S2  1  0.00001453  0.00000291  0.12853701  1
  S  S3  1  0.33332225  0.66666630  0.37645117  1
