# generated using pymatgen
data_NbBrF
_symmetry_space_group_name_H-M   'P 1'
_cell_length_a   3.04257985
_cell_length_b   5.10987679
_cell_length_c   4.16819775
_cell_angle_alpha   90.00678498
_cell_angle_beta   90.00180348
_cell_angle_gamma   90.00656626
_symmetry_Int_Tables_number   1
_chemical_formula_structural   NbBrF
_chemical_formula_sum   'Nb1 Br1 F1'
_cell_volume   64.80383717
_cell_formula_units_Z   1
loop_
 _symmetry_equiv_pos_site_id
 _symmetry_equiv_pos_as_xyz
  1  'x, y, z'
loop_
 _atom_site_type_symbol
 _atom_site_label
 _atom_site_symmetry_multiplicity
 _atom_site_fract_x
 _atom_site_fract_y
 _atom_site_fract_z
 _atom_site_occupancy
  Nb  Nb0  1  -0.00000549  -0.00005740  0.08755225  1
  Br  Br1  1  0.00000339  0.49993651  0.08743240  1
  F  F2  1  0.00000210  0.00012089  0.58711535  1
