# generated using pymatgen
data_NbBrF2
_symmetry_space_group_name_H-M   'P 1'
_cell_length_a   3.85336440
_cell_length_b   4.70492847
_cell_length_c   4.24315835
_cell_angle_alpha   90.00191282
_cell_angle_beta   90.01541405
_cell_angle_gamma   89.97961374
_symmetry_Int_Tables_number   1
_chemical_formula_structural   NbBrF2
_chemical_formula_sum   'Nb1 Br1 F2'
_cell_volume   76.92762080
_cell_formula_units_Z   1
loop_
 _symmetry_equiv_pos_site_id
 _symmetry_equiv_pos_as_xyz
  1  'x, y, z'
loop_
 _atom_site_type_symbol
 _atom_site_label
 _atom_site_symmetry_multiplicity
 _atom_site_fract_x
 _atom_site_fract_y
 _atom_site_fract_z
 _atom_site_occupancy
  Nb  Nb0  1  0.50013114  0.50002094  0.67711617  1
  Br  Br1  1  -0.00013958  -0.00000735  -0.14117474  1
  F  F2  1  0.00006220  0.49998046  0.49968361  1
  F  F3  1  0.49994624  0.50000595  0.15877497  1
