# generated using pymatgen
data_NbFeS2
_symmetry_space_group_name_H-M   'P 1'
_cell_length_a   3.38592110
_cell_length_b   3.70545121
_cell_length_c   9.98319466
_cell_angle_alpha   73.26167554
_cell_angle_beta   111.00261536
_cell_angle_gamma   118.75609318
_symmetry_Int_Tables_number   1
_chemical_formula_structural   NbFeS2
_chemical_formula_sum   'Nb1 Fe1 S2'
_cell_volume   101.48372095
_cell_formula_units_Z   1
loop_
 _symmetry_equiv_pos_site_id
 _symmetry_equiv_pos_as_xyz
  1  'x, y, z'
loop_
 _atom_site_type_symbol
 _atom_site_label
 _atom_site_symmetry_multiplicity
 _atom_site_fract_x
 _atom_site_fract_y
 _atom_site_fract_z
 _atom_site_occupancy
  Nb  Nb0  1  0.14385238  -0.01888033  0.67774242  1
  Fe  Fe1  1  -0.10319819  0.00867766  -0.13197088  1
  S  S2  1  0.31832204  0.64231998  0.52319368  1
  S  S3  1  0.64102376  0.36788269  -0.08146522  1
