# generated using pymatgen
data_NbInO
_symmetry_space_group_name_H-M   'P 1'
_cell_length_a   3.79244505
_cell_length_b   2.93339411
_cell_length_c   5.99738682
_cell_angle_alpha   90.00723374
_cell_angle_beta   89.99898959
_cell_angle_gamma   89.99120182
_symmetry_Int_Tables_number   1
_chemical_formula_structural   NbInO
_chemical_formula_sum   'Nb1 In1 O1'
_cell_volume   66.71934349
_cell_formula_units_Z   1
loop_
 _symmetry_equiv_pos_site_id
 _symmetry_equiv_pos_as_xyz
  1  'x, y, z'
loop_
 _atom_site_type_symbol
 _atom_site_label
 _atom_site_symmetry_multiplicity
 _atom_site_fract_x
 _atom_site_fract_y
 _atom_site_fract_z
 _atom_site_occupancy
  Nb  Nb0  1  0.50000108  0.49999554  0.04612269  1
  In  In1  1  0.49999931  0.50000155  0.54642057  1
  O  O2  1  -0.00000039  0.50000291  0.10775674  1
