# generated using pymatgen
data_NbIrSe2
_symmetry_space_group_name_H-M   'P 1'
_cell_length_a   3.37312265
_cell_length_b   3.37321380
_cell_length_c   8.49924191
_cell_angle_alpha   89.99737477
_cell_angle_beta   90.00101553
_cell_angle_gamma   119.99959812
_symmetry_Int_Tables_number   1
_chemical_formula_structural   NbIrSe2
_chemical_formula_sum   'Nb1 Ir1 Se2'
_cell_volume   83.75072620
_cell_formula_units_Z   1
loop_
 _symmetry_equiv_pos_site_id
 _symmetry_equiv_pos_as_xyz
  1  'x, y, z'
loop_
 _atom_site_type_symbol
 _atom_site_label
 _atom_site_symmetry_multiplicity
 _atom_site_fract_x
 _atom_site_fract_y
 _atom_site_fract_z
 _atom_site_occupancy
  Nb  Nb0  1  -0.00001076  0.00000851  0.63153991  1
  Ir  Ir1  1  0.66667782  0.33333080  -0.11867874  1
  Se  Se2  1  -0.00001034  0.00000772  0.05028727  1
  Se  Se3  1  0.33334328  0.66665297  0.42985156  1
