# generated using pymatgen
data_NbSeF
_symmetry_space_group_name_H-M   'P 1'
_cell_length_a   3.29458436
_cell_length_b   3.29531499
_cell_length_c   6.92665389
_cell_angle_alpha   90.00820253
_cell_angle_beta   89.98407280
_cell_angle_gamma   120.02435203
_symmetry_Int_Tables_number   1
_chemical_formula_structural   NbSeF
_chemical_formula_sum   'Nb1 Se1 F1'
_cell_volume   65.10960293
_cell_formula_units_Z   1
loop_
 _symmetry_equiv_pos_site_id
 _symmetry_equiv_pos_as_xyz
  1  'x, y, z'
loop_
 _atom_site_type_symbol
 _atom_site_label
 _atom_site_symmetry_multiplicity
 _atom_site_fract_x
 _atom_site_fract_y
 _atom_site_fract_z
 _atom_site_occupancy
  Nb  Nb0  1  0.00016027  -0.00000699  0.43278996  1
  Se  Se1  1  0.33327809  0.66666997  0.68953195  1
  F  F2  1  -0.00010503  0.00000368  0.15657809  1
