# generated using pymatgen
data_Nd2Cu6H13
_symmetry_space_group_name_H-M   P1
_cell_length_a   4.92851583
_cell_length_b   6.09312895
_cell_length_c   6.39559764
_cell_angle_alpha   90.56457865
_cell_angle_beta   95.27542727
_cell_angle_gamma   93.91135359
_symmetry_Int_Tables_number   1
_chemical_formula_structural   Nd2Cu6H13
_chemical_formula_sum   'Nd2 Cu6 H13'
_cell_volume   190.77620733
_cell_formula_units_Z   1
loop_
 _symmetry_equiv_pos_site_id
 _symmetry_equiv_pos_as_xyz
  1  'x, y, z'
loop_
 _atom_site_type_symbol
 _atom_site_label
 _atom_site_symmetry_multiplicity
 _atom_site_fract_x
 _atom_site_fract_y
 _atom_site_fract_z
 _atom_site_occupancy
  Nd  Nd0  1  0.42628180  0.60533922  0.81224975  1
  Nd  Nd1  1  0.93247748  0.37928456  0.27232601  1
  Cu  Cu2  1  0.05411664  0.14827449  0.76748229  1
  Cu  Cu3  1  0.06452524  0.86229928  0.46066314  1
  Cu  Cu4  1  0.51487488  0.81905914  0.28591217  1
  Cu  Cu5  1  0.52288327  0.09346881  0.98649155  1
  Cu  Cu6  1  0.52625703  0.15173904  0.55802910  1
  Cu  Cu7  1  0.96354867  0.86045017  0.05556029  1
  H  H8  1  0.01115404  0.62726439  0.56497934  1
  H  H9  1  0.07153671  0.01949145  0.25539671  1
  H  H10  1  0.14544185  0.33603742  0.95011235  1
  H  H11  1  0.23330149  0.29241626  0.59583751  1
  H  H12  1  0.23428026  0.93940647  0.89442503  1
  H  H13  1  0.42608866  0.86715339  0.53111889  1
  H  H14  1  0.48052570  0.57215680  0.19425059  1
  H  H15  1  0.55198376  0.10966694  0.25224377  1
  H  H16  1  0.64269436  0.40405344  0.54836145  1
  H  H17  1  0.65277732  0.34125665  0.96561831  1
  H  H18  1  0.74499739  0.95662847  0.86322394  1
  H  H19  1  0.86037739  0.05741688  0.54912462  1
  H  H20  1  0.93207605  0.61253671  0.97559320  1
