# generated using pymatgen
data_NdAlSb
_symmetry_space_group_name_H-M   'P 1'
_cell_length_a   4.23572782
_cell_length_b   4.87097830
_cell_length_c   4.21049015
_cell_angle_alpha   90.00000014
_cell_angle_beta   90.00000068
_cell_angle_gamma   89.99999975
_symmetry_Int_Tables_number   1
_chemical_formula_structural   NdAlSb
_chemical_formula_sum   'Nd1 Al1 Sb1'
_cell_volume   86.87141507
_cell_formula_units_Z   1
loop_
 _symmetry_equiv_pos_site_id
 _symmetry_equiv_pos_as_xyz
  1  'x, y, z'
loop_
 _atom_site_type_symbol
 _atom_site_label
 _atom_site_symmetry_multiplicity
 _atom_site_fract_x
 _atom_site_fract_y
 _atom_site_fract_z
 _atom_site_occupancy
  Nd  Nd0  1  0.00000000  -0.00000000  -0.00000000  1
  Al  Al1  1  0.50000000  0.50000000  0.00000000  1
  Sb  Sb2  1  -0.00000000  0.50000000  0.50000000  1
