# generated using pymatgen
data_NdAlAs
_symmetry_space_group_name_H-M   'P 1'
_cell_length_a   3.91038822
_cell_length_b   3.91038551
_cell_length_c   6.45140252
_cell_angle_alpha   89.99998784
_cell_angle_beta   89.99999941
_cell_angle_gamma   120.00002118
_symmetry_Int_Tables_number   1
_chemical_formula_structural   NdAlAs
_chemical_formula_sum   'Nd1 Al1 As1'
_cell_volume   85.43269956
_cell_formula_units_Z   1
loop_
 _symmetry_equiv_pos_site_id
 _symmetry_equiv_pos_as_xyz
  1  'x, y, z'
loop_
 _atom_site_type_symbol
 _atom_site_label
 _atom_site_symmetry_multiplicity
 _atom_site_fract_x
 _atom_site_fract_y
 _atom_site_fract_z
 _atom_site_occupancy
  Nd  Nd0  1  -0.00000021  -0.00000042  0.51391902  1
  Al  Al1  1  0.00000018  0.00000038  0.00928821  1
  As  As2  1  0.33333336  0.66666670  0.21069277  1
