# generated using pymatgen
data_NdAuSe
_symmetry_space_group_name_H-M   'P 1'
_cell_length_a   4.08356663
_cell_length_b   4.08356670
_cell_length_c   5.11615131
_cell_angle_alpha   90.00000000
_cell_angle_beta   90.00000011
_cell_angle_gamma   90.00000028
_symmetry_Int_Tables_number   1
_chemical_formula_structural   NdAuSe
_chemical_formula_sum   'Nd1 Au1 Se1'
_cell_volume   85.31446665
_cell_formula_units_Z   1
loop_
 _symmetry_equiv_pos_site_id
 _symmetry_equiv_pos_as_xyz
  1  'x, y, z'
loop_
 _atom_site_type_symbol
 _atom_site_label
 _atom_site_symmetry_multiplicity
 _atom_site_fract_x
 _atom_site_fract_y
 _atom_site_fract_z
 _atom_site_occupancy
  Nd  Nd0  1  0.50000000  0.50000000  0.50000000  1
  Au  Au1  1  0.00000000  0.00000000  0.00000000  1
  Se  Se2  1  -0.00000000  -0.00000000  0.50000000  1
