# generated using pymatgen
data_NdCuCl
_symmetry_space_group_name_H-M   'P 1'
_cell_length_a   3.74519951
_cell_length_b   3.59752359
_cell_length_c   5.68391962
_cell_angle_alpha   90.00041379
_cell_angle_beta   90.00002510
_cell_angle_gamma   90.00010435
_symmetry_Int_Tables_number   1
_chemical_formula_structural   NdCuCl
_chemical_formula_sum   'Nd1 Cu1 Cl1'
_cell_volume   76.58197035
_cell_formula_units_Z   1
loop_
 _symmetry_equiv_pos_site_id
 _symmetry_equiv_pos_as_xyz
  1  'x, y, z'
loop_
 _atom_site_type_symbol
 _atom_site_label
 _atom_site_symmetry_multiplicity
 _atom_site_fract_x
 _atom_site_fract_y
 _atom_site_fract_z
 _atom_site_occupancy
  Nd  Nd0  1  0.49999926  0.50000297  -0.11746176  1
  Cu  Cu1  1  -0.00000036  -0.00000381  0.61469160  1
  Cl  Cl2  1  0.00000110  0.50000084  0.26007016  1
