# generated using pymatgen
data_NdCuF
_symmetry_space_group_name_H-M   'P 1'
_cell_length_a   3.75741962
_cell_length_b   3.52577259
_cell_length_c   5.11327777
_cell_angle_alpha   90.00000168
_cell_angle_beta   90.00000009
_cell_angle_gamma   90.00000015
_symmetry_Int_Tables_number   1
_chemical_formula_structural   NdCuF
_chemical_formula_sum   'Nd1 Cu1 F1'
_cell_volume   67.73971757
_cell_formula_units_Z   1
loop_
 _symmetry_equiv_pos_site_id
 _symmetry_equiv_pos_as_xyz
  1  'x, y, z'
loop_
 _atom_site_type_symbol
 _atom_site_label
 _atom_site_symmetry_multiplicity
 _atom_site_fract_x
 _atom_site_fract_y
 _atom_site_fract_z
 _atom_site_occupancy
  Nd  Nd0  1  0.50000000  0.49999998  -0.05391020  1
  Cu  Cu1  1  0.00000000  -0.00000002  0.61616477  1
  F  F2  1  -0.00000000  0.50000004  0.20334544  1
