# generated using pymatgen
data_NdF
_symmetry_space_group_name_H-M   Cm
_cell_length_a   4.55941851
_cell_length_b   4.93740085
_cell_length_c   3.36061742
_cell_angle_alpha   90.00000000
_cell_angle_beta   96.82552329
_cell_angle_gamma   90.00000000
_symmetry_Int_Tables_number   8
_chemical_formula_structural   NdF
_chemical_formula_sum   'Nd2 F2'
_cell_volume   75.11695421
_cell_formula_units_Z   2
loop_
 _symmetry_equiv_pos_site_id
 _symmetry_equiv_pos_as_xyz
  1  'x, y, z'
  2  'x, -y, z'
  3  'x+1/2, y+1/2, z'
  4  'x+1/2, -y+1/2, z'
loop_
 _atom_site_type_symbol
 _atom_site_label
 _atom_site_symmetry_multiplicity
 _atom_site_fract_x
 _atom_site_fract_y
 _atom_site_fract_z
 _atom_site_occupancy
  Nd  Nd0  2  0.38115388  0.00000000  0.36347567  1
  F  F1  2  0.37313459  0.50000000  0.88652433  1
