# generated using pymatgen
data_NdLuP2
_symmetry_space_group_name_H-M   'P 1'
_cell_length_a   4.05001602
_cell_length_b   4.05001513
_cell_length_c   5.72144634
_cell_angle_alpha   89.99999509
_cell_angle_beta   89.99999718
_cell_angle_gamma   89.99998670
_symmetry_Int_Tables_number   1
_chemical_formula_structural   NdLuP2
_chemical_formula_sum   'Nd1 Lu1 P2'
_cell_volume   93.84674540
_cell_formula_units_Z   1
loop_
 _symmetry_equiv_pos_site_id
 _symmetry_equiv_pos_as_xyz
  1  'x, y, z'
loop_
 _atom_site_type_symbol
 _atom_site_label
 _atom_site_symmetry_multiplicity
 _atom_site_fract_x
 _atom_site_fract_y
 _atom_site_fract_z
 _atom_site_occupancy
  Nd  Nd0  1  0.49999988  0.49999992  0.49999994  1
  Lu  Lu1  1  0.00000001  0.00000002  0.00000005  1
  P  P2  1  0.00000007  0.00000004  0.50000000  1
  P  P3  1  0.50000004  0.50000001  0.00000000  1
