# generated using pymatgen
data_NiH
_symmetry_space_group_name_H-M   Amm2
_cell_length_a   2.47936765
_cell_length_b   2.54612374
_cell_length_c   4.31368410
_cell_angle_alpha   90.00000000
_cell_angle_beta   90.00000000
_cell_angle_gamma   90.00000000
_symmetry_Int_Tables_number   38
_chemical_formula_structural   NiH
_chemical_formula_sum   'Ni2 H2'
_cell_volume   27.23132506
_cell_formula_units_Z   2
loop_
 _symmetry_equiv_pos_site_id
 _symmetry_equiv_pos_as_xyz
  1  'x, y, z'
  2  '-x, -y, z'
  3  '-x, y, z'
  4  'x, -y, z'
  5  'x, y+1/2, z+1/2'
  6  '-x, -y+1/2, z+1/2'
  7  '-x, y+1/2, z+1/2'
  8  'x, -y+1/2, z+1/2'
loop_
 _atom_site_type_symbol
 _atom_site_label
 _atom_site_symmetry_multiplicity
 _atom_site_fract_x
 _atom_site_fract_y
 _atom_site_fract_z
 _atom_site_occupancy
  Ni  Ni0  2  0.00000000  0.00000000  0.59337362  1
  H  H1  2  0.50000000  0.00000000  0.89573593  1
