# generated using pymatgen
data_NiICl
_symmetry_space_group_name_H-M   'P 1'
_cell_length_a   3.75459981
_cell_length_b   3.75460017
_cell_length_c   6.37080270
_cell_angle_alpha   89.99984627
_cell_angle_beta   90.00015483
_cell_angle_gamma   120.00011987
_symmetry_Int_Tables_number   1
_chemical_formula_structural   NiICl
_chemical_formula_sum   'Ni1 I1 Cl1'
_cell_volume   77.77707608
_cell_formula_units_Z   1
loop_
 _symmetry_equiv_pos_site_id
 _symmetry_equiv_pos_as_xyz
  1  'x, y, z'
loop_
 _atom_site_type_symbol
 _atom_site_label
 _atom_site_symmetry_multiplicity
 _atom_site_fract_x
 _atom_site_fract_y
 _atom_site_fract_z
 _atom_site_occupancy
  Ni  Ni0  1  0.33333390  0.66666619  0.68317607  1
  I  I1  1  0.66666651  0.33333347  0.43778592  1
  Cl  Cl2  1  -0.00000041  0.00000034  0.87903801  1
