# generated using pymatgen
data_OsCl
_symmetry_space_group_name_H-M   Cm
_cell_length_a   4.79862897
_cell_length_b   2.77110539
_cell_length_c   6.58607452
_cell_angle_alpha   90.00000000
_cell_angle_beta   108.07318188
_cell_angle_gamma   90.00000000
_symmetry_Int_Tables_number   8
_chemical_formula_structural   OsCl
_chemical_formula_sum   'Os2 Cl2'
_cell_volume   83.25734404
_cell_formula_units_Z   2
loop_
 _symmetry_equiv_pos_site_id
 _symmetry_equiv_pos_as_xyz
  1  'x, y, z'
  2  'x, -y, z'
  3  'x+1/2, y+1/2, z'
  4  'x+1/2, -y+1/2, z'
loop_
 _atom_site_type_symbol
 _atom_site_label
 _atom_site_symmetry_multiplicity
 _atom_site_fract_x
 _atom_site_fract_y
 _atom_site_fract_z
 _atom_site_occupancy
  Os  Os0  2  0.20029549  0.00000000  0.54721931  1
  Cl  Cl1  2  0.05321171  0.00000000  0.20278069  1
