# generated using pymatgen
data_OsS3
_symmetry_space_group_name_H-M   P1
_cell_length_a   3.24558120
_cell_length_b   6.24405198
_cell_length_c   6.55729633
_cell_angle_alpha   74.79277158
_cell_angle_beta   78.06848642
_cell_angle_gamma   77.60457067
_symmetry_Int_Tables_number   1
_chemical_formula_structural   OsS3
_chemical_formula_sum   'Os1 S3'
_cell_volume   123.63919925
_cell_formula_units_Z   1
loop_
 _symmetry_equiv_pos_site_id
 _symmetry_equiv_pos_as_xyz
  1  'x, y, z'
loop_
 _atom_site_type_symbol
 _atom_site_label
 _atom_site_symmetry_multiplicity
 _atom_site_fract_x
 _atom_site_fract_y
 _atom_site_fract_z
 _atom_site_occupancy
  Os  Os0  1  0.03736767  0.99326767  0.00068159  1
  S  S1  1  0.17954372  0.64890483  0.00057586  1
  S  S2  1  0.41381093  0.05200007  0.23873372  1
  S  S3  1  0.56517768  0.16662743  0.76240883  1
