# generated using pymatgen
data_Pb3Cl4
_symmetry_space_group_name_H-M   P1
_cell_length_a   3.55657032
_cell_length_b   5.75771683
_cell_length_c   11.83147257
_cell_angle_alpha   90.02694959
_cell_angle_beta   97.67039462
_cell_angle_gamma   90.35849212
_symmetry_Int_Tables_number   1
_chemical_formula_structural   Pb3Cl4
_chemical_formula_sum   'Pb3 Cl4'
_cell_volume   240.10886740
_cell_formula_units_Z   1
loop_
 _symmetry_equiv_pos_site_id
 _symmetry_equiv_pos_as_xyz
  1  'x, y, z'
loop_
 _atom_site_type_symbol
 _atom_site_label
 _atom_site_symmetry_multiplicity
 _atom_site_fract_x
 _atom_site_fract_y
 _atom_site_fract_z
 _atom_site_occupancy
  Pb  Pb0  1  0.32163827  0.49739714  0.98135638  1
  Pb  Pb1  1  0.44405838  0.99688226  0.26216141  1
  Pb  Pb2  1  0.57889014  0.50196783  0.54498551  1
  Cl  Cl3  1  0.33676918  0.99611705  0.01269121  1
  Cl  Cl4  1  0.46115066  0.49891629  0.24179831  1
  Cl  Cl5  1  0.56563162  0.99932202  0.50875536  1
  Cl  Cl6  1  0.72266171  0.50939742  0.77725184  1
