# generated using pymatgen
data_Pd2Cl3
_symmetry_space_group_name_H-M   Cm
_cell_length_a   11.04379730
_cell_length_b   7.75817958
_cell_length_c   3.70147961
_cell_angle_alpha   90.00000000
_cell_angle_beta   105.71215281
_cell_angle_gamma   90.00000000
_symmetry_Int_Tables_number   8
_chemical_formula_structural   Pd2Cl3
_chemical_formula_sum   'Pd4 Cl6'
_cell_volume   305.29167458
_cell_formula_units_Z   2
loop_
 _symmetry_equiv_pos_site_id
 _symmetry_equiv_pos_as_xyz
  1  'x, y, z'
  2  'x, -y, z'
  3  'x+1/2, y+1/2, z'
  4  'x+1/2, -y+1/2, z'
loop_
 _atom_site_type_symbol
 _atom_site_label
 _atom_site_symmetry_multiplicity
 _atom_site_fract_x
 _atom_site_fract_y
 _atom_site_fract_z
 _atom_site_occupancy
  Pd  Pd0  2  0.02007999  0.50000000  0.59015778  1
  Pd  Pd1  2  0.47106180  0.50000000  0.05342166  1
  Cl  Cl2  4  0.48978932  0.29575174  0.56635395  1
  Cl  Cl3  2  0.23462625  0.50000000  0.85614675  1
