# generated using pymatgen
data_PdBr
_symmetry_space_group_name_H-M   Pm
_cell_length_a   2.86619929
_cell_length_b   2.58170744
_cell_length_c   13.31598191
_cell_angle_alpha   90.00000000
_cell_angle_beta   90.10573691
_cell_angle_gamma   90.00000000
_symmetry_Int_Tables_number   6
_chemical_formula_structural   PdBr
_chemical_formula_sum   'Pd1 Br1'
_cell_volume   98.53394440
_cell_formula_units_Z   1
loop_
 _symmetry_equiv_pos_site_id
 _symmetry_equiv_pos_as_xyz
  1  'x, y, z'
  2  'x, -y, z'
loop_
 _atom_site_type_symbol
 _atom_site_label
 _atom_site_symmetry_multiplicity
 _atom_site_fract_x
 _atom_site_fract_y
 _atom_site_fract_z
 _atom_site_occupancy
  Pd  Pd0  1  0.00010410  0.00000000  0.00053225  1
  Br  Br1  1  0.24989590  0.00000000  0.37676775  1
