# generated using pymatgen
data_PdRhF2
_symmetry_space_group_name_H-M   'P 1'
_cell_length_a   5.16248018
_cell_length_b   2.74564259
_cell_length_c   5.07130392
_cell_angle_alpha   90.00000044
_cell_angle_beta   108.86472713
_cell_angle_gamma   89.99999963
_symmetry_Int_Tables_number   1
_chemical_formula_structural   PdRhF2
_chemical_formula_sum   'Pd1 Rh1 F2'
_cell_volume   68.02112448
_cell_formula_units_Z   1
loop_
 _symmetry_equiv_pos_site_id
 _symmetry_equiv_pos_as_xyz
  1  'x, y, z'
loop_
 _atom_site_type_symbol
 _atom_site_label
 _atom_site_symmetry_multiplicity
 _atom_site_fract_x
 _atom_site_fract_y
 _atom_site_fract_z
 _atom_site_occupancy
  Pd  Pd0  1  -0.05847080  -0.00000000  -0.07578346  1
  Rh  Rh1  1  0.54944937  0.50000000  0.61007965  1
  F  F2  1  0.25231808  0.50000000  0.21058404  1
  F  F3  1  0.27000334  0.00000000  0.70181977  1
