# generated using pymatgen
data_PrInAs
_symmetry_space_group_name_H-M   'P 1'
_cell_length_a   4.44233580
_cell_length_b   4.97689415
_cell_length_c   4.10030130
_cell_angle_alpha   89.99999785
_cell_angle_beta   89.99999772
_cell_angle_gamma   89.99999721
_symmetry_Int_Tables_number   1
_chemical_formula_structural   PrInAs
_chemical_formula_sum   'Pr1 In1 As1'
_cell_volume   90.65370518
_cell_formula_units_Z   1
loop_
 _symmetry_equiv_pos_site_id
 _symmetry_equiv_pos_as_xyz
  1  'x, y, z'
loop_
 _atom_site_type_symbol
 _atom_site_label
 _atom_site_symmetry_multiplicity
 _atom_site_fract_x
 _atom_site_fract_y
 _atom_site_fract_z
 _atom_site_occupancy
  Pr  Pr0  1  0.49999998  0.50000001  -0.00000002  1
  In  In1  1  0.00000001  0.00000002  0.00000006  1
  As  As2  1  0.00000000  0.49999997  0.49999996  1
