# generated using pymatgen
data_PrNbAs
_symmetry_space_group_name_H-M   'P 1'
_cell_length_a   3.74628713
_cell_length_b   3.74633056
_cell_length_c   6.04069014
_cell_angle_alpha   89.99676324
_cell_angle_beta   90.00000093
_cell_angle_gamma   119.99961631
_symmetry_Int_Tables_number   1
_chemical_formula_structural   PrNbAs
_chemical_formula_sum   'Pr1 Nb1 As1'
_cell_volume   73.42196848
_cell_formula_units_Z   1
loop_
 _symmetry_equiv_pos_site_id
 _symmetry_equiv_pos_as_xyz
  1  'x, y, z'
loop_
 _atom_site_type_symbol
 _atom_site_label
 _atom_site_symmetry_multiplicity
 _atom_site_fract_x
 _atom_site_fract_y
 _atom_site_fract_z
 _atom_site_occupancy
  Pr  Pr0  1  0.00000012  0.00000024  0.45535502  1
  Nb  Nb1  1  0.33333326  0.66666653  0.03120738  1
  As  As2  1  0.66666662  0.33333323  0.79673760  1
