# generated using pymatgen
data_PrNbP
_symmetry_space_group_name_H-M   'P 1'
_cell_length_a   3.68099301
_cell_length_b   3.68099300
_cell_length_c   5.92082337
_cell_angle_alpha   90.00000129
_cell_angle_beta   89.99999759
_cell_angle_gamma   119.99999734
_symmetry_Int_Tables_number   1
_chemical_formula_structural   PrNbP
_chemical_formula_sum   'Pr1 Nb1 P1'
_cell_volume   69.47726807
_cell_formula_units_Z   1
loop_
 _symmetry_equiv_pos_site_id
 _symmetry_equiv_pos_as_xyz
  1  'x, y, z'
loop_
 _atom_site_type_symbol
 _atom_site_label
 _atom_site_symmetry_multiplicity
 _atom_site_fract_x
 _atom_site_fract_y
 _atom_site_fract_z
 _atom_site_occupancy
  Pr  Pr0  1  0.33333332  0.66666667  0.52402690  1
  Nb  Nb1  1  0.66666667  0.33333334  -0.01588177  1
  P  P2  1  0.00000000  -0.00000000  0.19915487  1
