# generated using pymatgen
data_PrOF
_symmetry_space_group_name_H-M   'P 1'
_cell_length_a   3.85928611
_cell_length_b   3.85928612
_cell_length_c   3.91089039
_cell_angle_alpha   89.99999965
_cell_angle_beta   90.00000029
_cell_angle_gamma   120.00001320
_symmetry_Int_Tables_number   1
_chemical_formula_structural   PrOF
_chemical_formula_sum   'Pr1 O1 F1'
_cell_volume   50.44523760
_cell_formula_units_Z   1
loop_
 _symmetry_equiv_pos_site_id
 _symmetry_equiv_pos_as_xyz
  1  'x, y, z'
loop_
 _atom_site_type_symbol
 _atom_site_label
 _atom_site_symmetry_multiplicity
 _atom_site_fract_x
 _atom_site_fract_y
 _atom_site_fract_z
 _atom_site_occupancy
  Pr  Pr0  1  -0.00000002  -0.00000001  -0.00000001  1
  O  O1  1  0.33333333  0.66666670  0.00000001  1
  F  F2  1  0.66666669  0.33333331  0.50000000  1
