# generated using pymatgen
data_PrSeCl
_symmetry_space_group_name_H-M   'P 1'
_cell_length_a   4.71987389
_cell_length_b   4.71987374
_cell_length_c   4.09113018
_cell_angle_alpha   89.99999922
_cell_angle_beta   90.00000157
_cell_angle_gamma   119.99997798
_symmetry_Int_Tables_number   1
_chemical_formula_structural   PrSeCl
_chemical_formula_sum   'Pr1 Se1 Cl1'
_cell_volume   78.92867327
_cell_formula_units_Z   1
loop_
 _symmetry_equiv_pos_site_id
 _symmetry_equiv_pos_as_xyz
  1  'x, y, z'
loop_
 _atom_site_type_symbol
 _atom_site_label
 _atom_site_symmetry_multiplicity
 _atom_site_fract_x
 _atom_site_fract_y
 _atom_site_fract_z
 _atom_site_occupancy
  Pr  Pr0  1  0.00000006  -0.00000004  -0.00000000  1
  Se  Se1  1  0.33333329  0.66666670  0.49999998  1
  Cl  Cl2  1  0.66666665  0.33333334  0.00000002  1
