# generated using pymatgen
data_PrTlBr
_symmetry_space_group_name_H-M   'P 1'
_cell_length_a   3.98172254
_cell_length_b   3.88183974
_cell_length_c   7.46085386
_cell_angle_alpha   89.97166992
_cell_angle_beta   89.99221705
_cell_angle_gamma   89.99336812
_symmetry_Int_Tables_number   1
_chemical_formula_structural   PrTlBr
_chemical_formula_sum   'Pr1 Tl1 Br1'
_cell_volume   115.31799106
_cell_formula_units_Z   1
loop_
 _symmetry_equiv_pos_site_id
 _symmetry_equiv_pos_as_xyz
  1  'x, y, z'
loop_
 _atom_site_type_symbol
 _atom_site_label
 _atom_site_symmetry_multiplicity
 _atom_site_fract_x
 _atom_site_fract_y
 _atom_site_fract_z
 _atom_site_occupancy
  Pr  Pr0  1  0.49998399  0.49993039  -0.10465602  1
  Tl  Tl1  1  -0.00004651  0.00011239  0.64988345  1
  Br  Br2  1  0.00006252  0.49995722  0.18407256  1
