# generated using pymatgen
data_Rb2RhO2
_symmetry_space_group_name_H-M   Pmm2
_cell_length_a   3.84963804
_cell_length_b   4.44727514
_cell_length_c   7.56604830
_cell_angle_alpha   90.00000000
_cell_angle_beta   90.00000000
_cell_angle_gamma   90.00000000
_symmetry_Int_Tables_number   25
_chemical_formula_structural   Rb2RhO2
_chemical_formula_sum   'Rb2 Rh1 O2'
_cell_volume   129.53376994
_cell_formula_units_Z   1
loop_
 _symmetry_equiv_pos_site_id
 _symmetry_equiv_pos_as_xyz
  1  'x, y, z'
  2  '-x, -y, z'
  3  '-x, y, z'
  4  'x, -y, z'
loop_
 _atom_site_type_symbol
 _atom_site_label
 _atom_site_symmetry_multiplicity
 _atom_site_fract_x
 _atom_site_fract_y
 _atom_site_fract_z
 _atom_site_occupancy
  Rb  Rb0  1  0.00000000  0.00000000  0.00512067  1
  Rb  Rb1  1  0.00000000  0.00000000  0.50597928  1
  Rh  Rh2  1  0.50000000  0.50000000  0.26351337  1
  O  O3  1  0.00000000  0.50000000  0.21316701  1
  O  O4  1  0.50000000  0.50000000  0.51591968  1
