# generated using pymatgen
data_Rb3F5
_symmetry_space_group_name_H-M   P-1
_cell_length_a   4.86830126
_cell_length_b   5.51660844
_cell_length_c   6.26384549
_cell_angle_alpha   79.20233324
_cell_angle_beta   85.80278956
_cell_angle_gamma   87.11910565
_symmetry_Int_Tables_number   2
_chemical_formula_structural   Rb3F5
_chemical_formula_sum   'Rb3 F5'
_cell_volume   164.68868219
_cell_formula_units_Z   1
loop_
 _symmetry_equiv_pos_site_id
 _symmetry_equiv_pos_as_xyz
  1  'x, y, z'
  2  '-x, -y, -z'
loop_
 _atom_site_type_symbol
 _atom_site_label
 _atom_site_symmetry_multiplicity
 _atom_site_fract_x
 _atom_site_fract_y
 _atom_site_fract_z
 _atom_site_occupancy
  Rb  Rb0  2  0.45562491  0.33720157  0.27990755  1
  Rb  Rb1  1  0.00000000  0.00000000  0.00000000  1
  F  F2  2  0.14158075  0.93012883  0.43438098  1
  F  F3  2  0.48008842  0.83270435  0.25222672  1
  F  F4  1  0.00000000  0.50000000  0.00000000  1
