# generated using pymatgen
data_RbAgBr2
_symmetry_space_group_name_H-M   'P 1'
_cell_length_a   4.56612483
_cell_length_b   4.56612429
_cell_length_c   6.44333745
_cell_angle_alpha   90.00001228
_cell_angle_beta   90.00000250
_cell_angle_gamma   90.00001782
_symmetry_Int_Tables_number   1
_chemical_formula_structural   RbAgBr2
_chemical_formula_sum   'Rb1 Ag1 Br2'
_cell_volume   134.34032227
_cell_formula_units_Z   1
loop_
 _symmetry_equiv_pos_site_id
 _symmetry_equiv_pos_as_xyz
  1  'x, y, z'
loop_
 _atom_site_type_symbol
 _atom_site_label
 _atom_site_symmetry_multiplicity
 _atom_site_fract_x
 _atom_site_fract_y
 _atom_site_fract_z
 _atom_site_occupancy
  Rb  Rb0  1  0.49999986  0.50000003  0.49999996  1
  Ag  Ag1  1  0.00000008  -0.00000001  0.00000001  1
  Br  Br2  1  0.00000005  -0.00000001  0.50000001  1
  Br  Br3  1  0.50000002  0.49999999  0.00000002  1
