# generated using pymatgen
data_RbHBr2
_symmetry_space_group_name_H-M   'P 1'
_cell_length_a   4.61105060
_cell_length_b   4.61105147
_cell_length_c   6.47901043
_cell_angle_alpha   89.99999431
_cell_angle_beta   90.00001394
_cell_angle_gamma   89.99997888
_symmetry_Int_Tables_number   1
_chemical_formula_structural   RbHBr2
_chemical_formula_sum   'Rb1 H1 Br2'
_cell_volume   137.75536984
_cell_formula_units_Z   1
loop_
 _symmetry_equiv_pos_site_id
 _symmetry_equiv_pos_as_xyz
  1  'x, y, z'
loop_
 _atom_site_type_symbol
 _atom_site_label
 _atom_site_symmetry_multiplicity
 _atom_site_fract_x
 _atom_site_fract_y
 _atom_site_fract_z
 _atom_site_occupancy
  Rb  Rb0  1  0.50000021  0.49999991  0.49999987  1
  H  H1  1  -0.00000006  0.00000008  0.00000003  1
  Br  Br2  1  -0.00000008  -0.00000002  0.50000006  1
  Br  Br3  1  0.49999993  0.50000003  0.00000004  1
