# generated using pymatgen
data_RbHgAs
_symmetry_space_group_name_H-M   'P 1'
_cell_length_a   4.63714156
_cell_length_b   4.63714124
_cell_length_c   5.51672196
_cell_angle_alpha   89.99999633
_cell_angle_beta   89.99998677
_cell_angle_gamma   120.00000574
_symmetry_Int_Tables_number   1
_chemical_formula_structural   RbHgAs
_chemical_formula_sum   'Rb1 Hg1 As1'
_cell_volume   102.73357011
_cell_formula_units_Z   1
loop_
 _symmetry_equiv_pos_site_id
 _symmetry_equiv_pos_as_xyz
  1  'x, y, z'
loop_
 _atom_site_type_symbol
 _atom_site_label
 _atom_site_symmetry_multiplicity
 _atom_site_fract_x
 _atom_site_fract_y
 _atom_site_fract_z
 _atom_site_occupancy
  Rb  Rb0  1  0.33333330  0.66666662  -0.00000004  1
  Hg  Hg1  1  0.66666667  0.33333331  0.50000004  1
  As  As2  1  0.00000003  0.00000007  0.50000000  1
