# generated using pymatgen
data_RbInS2
_symmetry_space_group_name_H-M   'P 1'
_cell_length_a   4.26213056
_cell_length_b   4.26212830
_cell_length_c   6.03350059
_cell_angle_alpha   89.99998992
_cell_angle_beta   90.00000416
_cell_angle_gamma   89.99999409
_symmetry_Int_Tables_number   1
_chemical_formula_structural   RbInS2
_chemical_formula_sum   'Rb1 In1 S2'
_cell_volume   109.60304692
_cell_formula_units_Z   1
loop_
 _symmetry_equiv_pos_site_id
 _symmetry_equiv_pos_as_xyz
  1  'x, y, z'
loop_
 _atom_site_type_symbol
 _atom_site_label
 _atom_site_symmetry_multiplicity
 _atom_site_fract_x
 _atom_site_fract_y
 _atom_site_fract_z
 _atom_site_occupancy
  Rb  Rb0  1  0.49999942  0.50000105  0.50000008  1
  In  In1  1  0.00000038  -0.00000058  -0.00000011  1
  S  S2  1  -0.00000027  0.00000007  0.50000004  1
  S  S3  1  0.50000047  0.49999946  -0.00000001  1
