# generated using pymatgen
data_RbLiSe
_symmetry_space_group_name_H-M   'P 1'
_cell_length_a   4.43310775
_cell_length_b   4.43310472
_cell_length_c   5.10176431
_cell_angle_alpha   90.00000607
_cell_angle_beta   89.99995063
_cell_angle_gamma   120.00016908
_symmetry_Int_Tables_number   1
_chemical_formula_structural   RbLiSe
_chemical_formula_sum   'Rb1 Li1 Se1'
_cell_volume   86.82935219
_cell_formula_units_Z   1
loop_
 _symmetry_equiv_pos_site_id
 _symmetry_equiv_pos_as_xyz
  1  'x, y, z'
loop_
 _atom_site_type_symbol
 _atom_site_label
 _atom_site_symmetry_multiplicity
 _atom_site_fract_x
 _atom_site_fract_y
 _atom_site_fract_z
 _atom_site_occupancy
  Rb  Rb0  1  0.66666645  0.33333327  -0.00000003  1
  Li  Li1  1  0.33333311  0.66666693  0.49999997  1
  Se  Se2  1  0.00000044  -0.00000019  0.50000006  1
