# generated using pymatgen
data_RbRuF2
_symmetry_space_group_name_H-M   'P 1'
_cell_length_a   3.12382922
_cell_length_b   4.17153291
_cell_length_c   5.79388495
_cell_angle_alpha   90.00000398
_cell_angle_beta   89.99999905
_cell_angle_gamma   90.00000907
_symmetry_Int_Tables_number   1
_chemical_formula_structural   RbRuF2
_chemical_formula_sum   'Rb1 Ru1 F2'
_cell_volume   75.50102093
_cell_formula_units_Z   1
loop_
 _symmetry_equiv_pos_site_id
 _symmetry_equiv_pos_as_xyz
  1  'x, y, z'
loop_
 _atom_site_type_symbol
 _atom_site_label
 _atom_site_symmetry_multiplicity
 _atom_site_fract_x
 _atom_site_fract_y
 _atom_site_fract_z
 _atom_site_occupancy
  Rb  Rb0  1  0.49999994  0.49999993  0.50283394  1
  Ru  Ru1  1  0.00000004  0.00000009  -0.01920499  1
  F  F2  1  -0.00000001  0.00000000  0.36629243  1
  F  F3  1  0.00000003  0.49999997  -0.03302138  1
