# generated using pymatgen
data_RbSbAu
_symmetry_space_group_name_H-M   'P 1'
_cell_length_a   3.28350926
_cell_length_b   3.28345978
_cell_length_c   11.36032698
_cell_angle_alpha   90.00116364
_cell_angle_beta   89.99985728
_cell_angle_gamma   120.00058119
_symmetry_Int_Tables_number   1
_chemical_formula_structural   RbSbAu
_chemical_formula_sum   'Rb1 Sb1 Au1'
_cell_volume   106.06909554
_cell_formula_units_Z   1
loop_
 _symmetry_equiv_pos_site_id
 _symmetry_equiv_pos_as_xyz
  1  'x, y, z'
loop_
 _atom_site_type_symbol
 _atom_site_label
 _atom_site_symmetry_multiplicity
 _atom_site_fract_x
 _atom_site_fract_y
 _atom_site_fract_z
 _atom_site_occupancy
  Rb  Rb0  1  0.66666675  0.33333209  0.23387054  1
  Sb  Sb1  1  0.33333121  0.66666382  0.51832617  1
  Au  Au2  1  0.00000203  0.00000410  -0.00459671  1
