# generated using pymatgen
data_RbTlSb
_symmetry_space_group_name_H-M   'P 1'
_cell_length_a   5.65209007
_cell_length_b   5.65306730
_cell_length_c   3.93953556
_cell_angle_alpha   90.01587176
_cell_angle_beta   90.01329347
_cell_angle_gamma   119.99227745
_symmetry_Int_Tables_number   1
_chemical_formula_structural   RbTlSb
_chemical_formula_sum   'Rb1 Tl1 Sb1'
_cell_volume   109.01910716
_cell_formula_units_Z   1
loop_
 _symmetry_equiv_pos_site_id
 _symmetry_equiv_pos_as_xyz
  1  'x, y, z'
loop_
 _atom_site_type_symbol
 _atom_site_label
 _atom_site_symmetry_multiplicity
 _atom_site_fract_x
 _atom_site_fract_y
 _atom_site_fract_z
 _atom_site_occupancy
  Rb  Rb0  1  0.66667170  0.33333668  0.25331787  1
  Tl  Tl1  1  0.33333198  0.66668411  0.67644516  1
  Sb  Sb2  1  -0.00000368  -0.00002079  -0.19506303  1
