# generated using pymatgen
data_ReBr4
_symmetry_space_group_name_H-M   P1
_cell_length_a   6.17809018
_cell_length_b   8.86115957
_cell_length_c   9.38381191
_cell_angle_alpha   89.18871598
_cell_angle_beta   78.56150889
_cell_angle_gamma   88.77761290
_symmetry_Int_Tables_number   1
_chemical_formula_structural   ReBr4
_chemical_formula_sum   'Re1 Br4'
_cell_volume   503.37339495
_cell_formula_units_Z   1
loop_
 _symmetry_equiv_pos_site_id
 _symmetry_equiv_pos_as_xyz
  1  'x, y, z'
loop_
 _atom_site_type_symbol
 _atom_site_label
 _atom_site_symmetry_multiplicity
 _atom_site_fract_x
 _atom_site_fract_y
 _atom_site_fract_z
 _atom_site_occupancy
  Re  Re0  1  0.79242973  0.90231757  0.84079994  1
  Br  Br1  1  0.72227378  0.33685213  0.40180485  1
  Br  Br2  1  0.78065042  0.62882210  0.84843500  1
  Br  Br3  1  0.79445409  0.17526457  0.84675782  1
  Br  Br4  1  0.86069197  0.11604362  0.28840239  1
