# generated using pymatgen
data_RePbBr4
_symmetry_space_group_name_H-M   'P 1'
_cell_length_a   8.38645167
_cell_length_b   8.77939614
_cell_length_c   8.51393372
_cell_angle_alpha   135.79599063
_cell_angle_beta   127.84662284
_cell_angle_gamma   87.50347682
_symmetry_Int_Tables_number   1
_chemical_formula_structural   RePbBr4
_chemical_formula_sum   'Re1 Pb1 Br4'
_cell_volume   239.59428583
_cell_formula_units_Z   1
loop_
 _symmetry_equiv_pos_site_id
 _symmetry_equiv_pos_as_xyz
  1  'x, y, z'
loop_
 _atom_site_type_symbol
 _atom_site_label
 _atom_site_symmetry_multiplicity
 _atom_site_fract_x
 _atom_site_fract_y
 _atom_site_fract_z
 _atom_site_occupancy
  Re  Re0  1  0.51054040  0.48788922  0.32657054  1
  Pb  Pb1  1  0.03918357  0.14114683  0.21090502  1
  Br  Br2  1  0.17289495  0.48560403  0.25511229  1
  Br  Br3  1  0.40635861  0.60350349  0.10324800  1
  Br  Br4  1  0.56968498  0.33354408  0.50372490  1
  Br  Br5  1  0.80293750  0.44391234  0.32343925  1
