# generated using pymatgen
data_RuAuBr2
_symmetry_space_group_name_H-M   'P 1'
_cell_length_a   4.81567974
_cell_length_b   3.69657949
_cell_length_c   7.09259308
_cell_angle_alpha   89.99811866
_cell_angle_beta   120.68451127
_cell_angle_gamma   90.00340423
_symmetry_Int_Tables_number   1
_chemical_formula_structural   RuAuBr2
_chemical_formula_sum   'Ru1 Au1 Br2'
_cell_volume   108.58159580
_cell_formula_units_Z   1
loop_
 _symmetry_equiv_pos_site_id
 _symmetry_equiv_pos_as_xyz
  1  'x, y, z'
loop_
 _atom_site_type_symbol
 _atom_site_label
 _atom_site_symmetry_multiplicity
 _atom_site_fract_x
 _atom_site_fract_y
 _atom_site_fract_z
 _atom_site_occupancy
  Ru  Ru0  1  0.62007865  0.50000153  0.58883948  1
  Au  Au1  1  -0.13541786  0.00001033  -0.09524918  1
  Br  Br2  1  0.20732460  0.49999754  0.70004828  1
  Br  Br3  1  0.43901461  -0.00000940  0.31906142  1
