# generated using pymatgen
data_SbBr2F
_symmetry_space_group_name_H-M   'P 1'
_cell_length_a   4.08764533
_cell_length_b   4.65141627
_cell_length_c   7.28301525
_cell_angle_alpha   97.21091790
_cell_angle_beta   95.26992184
_cell_angle_gamma   90.46727318
_symmetry_Int_Tables_number   1
_chemical_formula_structural   SbBr2F
_chemical_formula_sum   'Sb1 Br2 F1'
_cell_volume   136.77136958
_cell_formula_units_Z   1
loop_
 _symmetry_equiv_pos_site_id
 _symmetry_equiv_pos_as_xyz
  1  'x, y, z'
loop_
 _atom_site_type_symbol
 _atom_site_label
 _atom_site_symmetry_multiplicity
 _atom_site_fract_x
 _atom_site_fract_y
 _atom_site_fract_z
 _atom_site_occupancy
  Sb  Sb0  1  0.61663725  0.62620476  0.63846252  1
  Br  Br1  1  0.17796362  -0.19564393  0.90204324  1
  Br  Br2  1  0.08582670  0.53468139  0.36905162  1
  F  F3  1  0.61947242  0.03475778  0.59044262  1
