# generated using pymatgen
data_SbBrF3
_symmetry_space_group_name_H-M   P1
_cell_length_a   4.30089435
_cell_length_b   4.79210494
_cell_length_c   6.02199971
_cell_angle_alpha   105.37374678
_cell_angle_beta   104.63813651
_cell_angle_gamma   104.23857488
_symmetry_Int_Tables_number   1
_chemical_formula_structural   SbBrF3
_chemical_formula_sum   'Sb1 Br1 F3'
_cell_volume   109.08020146
_cell_formula_units_Z   1
loop_
 _symmetry_equiv_pos_site_id
 _symmetry_equiv_pos_as_xyz
  1  'x, y, z'
loop_
 _atom_site_type_symbol
 _atom_site_label
 _atom_site_symmetry_multiplicity
 _atom_site_fract_x
 _atom_site_fract_y
 _atom_site_fract_z
 _atom_site_occupancy
  Sb  Sb0  1  0.47126038  0.34687701  0.26214175  1
  Br  Br1  1  0.60678131  0.96922456  0.53946130  1
  F  F2  1  0.21871831  0.95608171  0.00911908  1
  F  F3  1  0.47688329  0.50583230  0.00274736  1
  F  F4  1  0.97125672  0.34768443  0.25743051  1
