# generated using pymatgen
data_SbCl4
_symmetry_space_group_name_H-M   P1
_cell_length_a   5.97309030
_cell_length_b   7.90117644
_cell_length_c   10.80776446
_cell_angle_alpha   90.44433074
_cell_angle_beta   101.98941620
_cell_angle_gamma   91.04742876
_symmetry_Int_Tables_number   1
_chemical_formula_structural   SbCl4
_chemical_formula_sum   'Sb2 Cl8'
_cell_volume   498.82163071
_cell_formula_units_Z   2
loop_
 _symmetry_equiv_pos_site_id
 _symmetry_equiv_pos_as_xyz
  1  'x, y, z'
loop_
 _atom_site_type_symbol
 _atom_site_label
 _atom_site_symmetry_multiplicity
 _atom_site_fract_x
 _atom_site_fract_y
 _atom_site_fract_z
 _atom_site_occupancy
  Sb  Sb0  1  0.68549292  0.11490229  0.80012814  1
  Sb  Sb1  1  0.97349878  0.69714113  0.88827523  1
  Cl  Cl2  1  0.51996352  0.26465816  0.95492878  1
  Cl  Cl3  1  0.56037965  0.71912852  0.83540902  1
  Cl  Cl4  1  0.57213138  0.78190244  0.33096655  1
  Cl  Cl5  1  0.68458106  0.55473391  0.39054032  1
  Cl  Cl6  1  0.91162833  0.36367495  0.75642310  1
  Cl  Cl7  1  0.97066770  0.93084922  0.68504375  1
  Cl  Cl8  1  0.97117443  0.00631258  0.98839856  1
  Cl  Cl9  1  0.99738223  0.59369681  0.09738656  1
