# generated using pymatgen
data_SbF7
_symmetry_space_group_name_H-M   P1
_cell_length_a   5.15993764
_cell_length_b   5.51368108
_cell_length_c   5.80263352
_cell_angle_alpha   86.58641481
_cell_angle_beta   63.69589537
_cell_angle_gamma   65.74876604
_symmetry_Int_Tables_number   1
_chemical_formula_structural   SbF7
_chemical_formula_sum   'Sb1 F7'
_cell_volume   133.40927457
_cell_formula_units_Z   1
loop_
 _symmetry_equiv_pos_site_id
 _symmetry_equiv_pos_as_xyz
  1  'x, y, z'
loop_
 _atom_site_type_symbol
 _atom_site_label
 _atom_site_symmetry_multiplicity
 _atom_site_fract_x
 _atom_site_fract_y
 _atom_site_fract_z
 _atom_site_occupancy
  Sb  Sb0  1  0.75392760  0.02487019  0.33729027  1
  F  F1  1  0.15929905  0.80652189  0.06060507  1
  F  F2  1  0.18575275  0.48031018  0.84106691  1
  F  F3  1  0.21503894  0.26639933  0.67987357  1
  F  F4  1  0.50978852  0.84186491  0.34541826  1
  F  F5  1  0.59069294  0.25759140  0.13325826  1
  F  F6  1  0.81262616  0.85061356  0.61223718  1
  F  F7  1  0.84967403  0.29022854  0.42715048  1
