# generated using pymatgen
data_SbSBr
_symmetry_space_group_name_H-M   'P 1'
_cell_length_a   3.99493596
_cell_length_b   3.99493486
_cell_length_c   6.95275723
_cell_angle_alpha   89.99993895
_cell_angle_beta   89.99996156
_cell_angle_gamma   119.99997832
_symmetry_Int_Tables_number   1
_chemical_formula_structural   SbSBr
_chemical_formula_sum   'Sb1 S1 Br1'
_cell_volume   96.09644387
_cell_formula_units_Z   1
loop_
 _symmetry_equiv_pos_site_id
 _symmetry_equiv_pos_as_xyz
  1  'x, y, z'
loop_
 _atom_site_type_symbol
 _atom_site_label
 _atom_site_symmetry_multiplicity
 _atom_site_fract_x
 _atom_site_fract_y
 _atom_site_fract_z
 _atom_site_occupancy
  Sb  Sb0  1  0.33333343  0.66666675  0.21986709  1
  S  S1  1  0.66666659  0.33333326  0.41809936  1
  Br  Br2  1  -0.00000002  -0.00000001  0.94203355  1
