# generated using pymatgen
data_SbTe2Au
_symmetry_space_group_name_H-M   'P 1'
_cell_length_a   4.42102293
_cell_length_b   4.52707070
_cell_length_c   7.33270011
_cell_angle_alpha   89.99999134
_cell_angle_beta   88.30689773
_cell_angle_gamma   89.99999769
_symmetry_Int_Tables_number   1
_chemical_formula_structural   SbTe2Au
_chemical_formula_sum   'Sb1 Te2 Au1'
_cell_volume   146.69466649
_cell_formula_units_Z   1
loop_
 _symmetry_equiv_pos_site_id
 _symmetry_equiv_pos_as_xyz
  1  'x, y, z'
loop_
 _atom_site_type_symbol
 _atom_site_label
 _atom_site_symmetry_multiplicity
 _atom_site_fract_x
 _atom_site_fract_y
 _atom_site_fract_z
 _atom_site_occupancy
  Sb  Sb0  1  -0.13482369  -0.00000004  0.48608798  1
  Te  Te1  1  0.26097110  0.00000003  0.17742326  1
  Te  Te2  1  0.22270298  0.49999992  0.63051371  1
  Au  Au3  1  0.16204960  0.50000009  -0.00752495  1
