# generated using pymatgen
data_ScBiN2
_symmetry_space_group_name_H-M   'P 1'
_cell_length_a   3.44611197
_cell_length_b   3.44611188
_cell_length_c   4.87130822
_cell_angle_alpha   89.99997785
_cell_angle_beta   89.99997979
_cell_angle_gamma   90.00000732
_symmetry_Int_Tables_number   1
_chemical_formula_structural   ScBiN2
_chemical_formula_sum   'Sc1 Bi1 N2'
_cell_volume   57.85013365
_cell_formula_units_Z   1
loop_
 _symmetry_equiv_pos_site_id
 _symmetry_equiv_pos_as_xyz
  1  'x, y, z'
loop_
 _atom_site_type_symbol
 _atom_site_label
 _atom_site_symmetry_multiplicity
 _atom_site_fract_x
 _atom_site_fract_y
 _atom_site_fract_z
 _atom_site_occupancy
  Sc  Sc0  1  0.50000035  0.50000040  0.00000016  1
  Bi  Bi1  1  0.00000035  0.00000008  0.49999998  1
  N  N2  1  -0.00000017  0.00000000  0.00000005  1
  N  N3  1  0.49999948  0.49999952  0.49999981  1
