# generated using pymatgen
data_SCl3
_symmetry_space_group_name_H-M   P1
_cell_length_a   5.03316069
_cell_length_b   6.18647061
_cell_length_c   6.20540589
_cell_angle_alpha   60.24454906
_cell_angle_beta   75.73443430
_cell_angle_gamma   84.91221533
_symmetry_Int_Tables_number   1
_chemical_formula_structural   SCl3
_chemical_formula_sum   'S1 Cl3'
_cell_volume   162.44259534
_cell_formula_units_Z   1
loop_
 _symmetry_equiv_pos_site_id
 _symmetry_equiv_pos_as_xyz
  1  'x, y, z'
loop_
 _atom_site_type_symbol
 _atom_site_label
 _atom_site_symmetry_multiplicity
 _atom_site_fract_x
 _atom_site_fract_y
 _atom_site_fract_z
 _atom_site_occupancy
  S  S0  1  0.89688487  0.03077851  0.16117793  1
  Cl  Cl1  1  0.05115393  0.72097820  0.40906439  1
  Cl  Cl2  1  0.25470900  0.15058960  0.82005784  1
  Cl  Cl3  1  0.65925220  0.15635369  0.42119984  1
