# generated using pymatgen
data_ScMnSb2
_symmetry_space_group_name_H-M   'P 1'
_cell_length_a   3.90993600
_cell_length_b   4.21746006
_cell_length_c   5.80169031
_cell_angle_alpha   90.00005749
_cell_angle_beta   107.19993932
_cell_angle_gamma   89.99993461
_symmetry_Int_Tables_number   1
_chemical_formula_structural   ScMnSb2
_chemical_formula_sum   'Sc1 Mn1 Sb2'
_cell_volume   91.39138364
_cell_formula_units_Z   1
loop_
 _symmetry_equiv_pos_site_id
 _symmetry_equiv_pos_as_xyz
  1  'x, y, z'
loop_
 _atom_site_type_symbol
 _atom_site_label
 _atom_site_symmetry_multiplicity
 _atom_site_fract_x
 _atom_site_fract_y
 _atom_site_fract_z
 _atom_site_occupancy
  Sc  Sc0  1  0.14365718  -0.00000023  0.42872317  1
  Mn  Mn1  1  0.37152277  0.50000023  0.84835842  1
  Sb  Sb2  1  0.60215529  0.49999981  0.34512571  1
  Sb  Sb3  1  0.88266476  0.00000019  0.87779270  1
