# generated using pymatgen
data_ScNbP
_symmetry_space_group_name_H-M   'P 1'
_cell_length_a   4.54428366
_cell_length_b   3.78088415
_cell_length_c   3.38570786
_cell_angle_alpha   90.00000531
_cell_angle_beta   90.00012744
_cell_angle_gamma   90.00001164
_symmetry_Int_Tables_number   1
_chemical_formula_structural   ScNbP
_chemical_formula_sum   'Sc1 Nb1 P1'
_cell_volume   58.17123510
_cell_formula_units_Z   1
loop_
 _symmetry_equiv_pos_site_id
 _symmetry_equiv_pos_as_xyz
  1  'x, y, z'
loop_
 _atom_site_type_symbol
 _atom_site_label
 _atom_site_symmetry_multiplicity
 _atom_site_fract_x
 _atom_site_fract_y
 _atom_site_fract_z
 _atom_site_occupancy
  Sc  Sc0  1  0.49999984  0.50000015  0.50000007  1
  Nb  Nb1  1  -0.00000005  -0.00000003  0.49999997  1
  P  P2  1  0.00000021  0.49999988  -0.00000004  1
