# generated using pymatgen
data_ScTeC
_symmetry_space_group_name_H-M   P3m1
_cell_length_a   3.93295371
_cell_length_b   3.93295371
_cell_length_c   4.51840621
_cell_angle_alpha   90.00000000
_cell_angle_beta   90.00000000
_cell_angle_gamma   120.00000000
_symmetry_Int_Tables_number   156
_chemical_formula_structural   ScTeC
_chemical_formula_sum   'Sc1 Te1 C1'
_cell_volume   60.52761667
_cell_formula_units_Z   1
loop_
 _symmetry_equiv_pos_site_id
 _symmetry_equiv_pos_as_xyz
  1  'x, y, z'
  2  '-y, x-y, z'
  3  '-x+y, -x, z'
  4  '-y, -x, z'
  5  '-x+y, y, z'
  6  'x, x-y, z'
loop_
 _atom_site_type_symbol
 _atom_site_label
 _atom_site_symmetry_multiplicity
 _atom_site_fract_x
 _atom_site_fract_y
 _atom_site_fract_z
 _atom_site_occupancy
  Sc  Sc0  1  0.66666667  0.33333333  0.07117413  1
  Te  Te1  1  0.33333333  0.66666667  0.53746127  1
  C  C2  1  0.33333333  0.66666667  0.03306459  1
