# generated using pymatgen
data_ScTe2
_symmetry_space_group_name_H-M   C2/m
_cell_length_a   6.94529026
_cell_length_b   4.62409535
_cell_length_c   6.68521616
_cell_angle_alpha   90.00000000
_cell_angle_beta   115.43461322
_cell_angle_gamma   90.00000000
_symmetry_Int_Tables_number   12
_chemical_formula_structural   ScTe2
_chemical_formula_sum   'Sc2 Te4'
_cell_volume   193.89068169
_cell_formula_units_Z   2
loop_
 _symmetry_equiv_pos_site_id
 _symmetry_equiv_pos_as_xyz
  1  'x, y, z'
  2  '-x, -y, -z'
  3  '-x, y, -z'
  4  'x, -y, z'
  5  'x+1/2, y+1/2, z'
  6  '-x+1/2, -y+1/2, -z'
  7  '-x+1/2, y+1/2, -z'
  8  'x+1/2, -y+1/2, z'
loop_
 _atom_site_type_symbol
 _atom_site_label
 _atom_site_symmetry_multiplicity
 _atom_site_fract_x
 _atom_site_fract_y
 _atom_site_fract_z
 _atom_site_occupancy
  Sc  Sc0  2  0.00000000  0.00000000  0.50000000  1
  Te  Te1  4  0.02858445  0.50000000  0.24869872  1
