# generated using pymatgen
data_Si2PtRh
_symmetry_space_group_name_H-M   'P 1'
_cell_length_a   3.07185980
_cell_length_b   4.46549699
_cell_length_c   4.14259103
_cell_angle_alpha   89.99999760
_cell_angle_beta   89.98255059
_cell_angle_gamma   90.00000000
_symmetry_Int_Tables_number   1
_chemical_formula_structural   Si2PtRh
_chemical_formula_sum   'Si2 Pt1 Rh1'
_cell_volume   56.82549561
_cell_formula_units_Z   1
loop_
 _symmetry_equiv_pos_site_id
 _symmetry_equiv_pos_as_xyz
  1  'x, y, z'
loop_
 _atom_site_type_symbol
 _atom_site_label
 _atom_site_symmetry_multiplicity
 _atom_site_fract_x
 _atom_site_fract_y
 _atom_site_fract_z
 _atom_site_occupancy
  Si  Si0  1  0.37495832  0.50000001  0.77091067  1
  Si  Si1  1  0.87427428  -0.00000000  -0.01487906  1
  Pt  Pt2  1  0.37545749  -0.00000001  0.51681552  1
  Rh  Rh3  1  0.87540991  0.50000001  0.22705288  1
