# generated using pymatgen
data_Si3Ni4S
_symmetry_space_group_name_H-M   Pm
_cell_length_a   5.19625256
_cell_length_b   3.32549706
_cell_length_c   5.73933050
_cell_angle_alpha   90.00000000
_cell_angle_beta   90.13402695
_cell_angle_gamma   90.00000000
_symmetry_Int_Tables_number   6
_chemical_formula_structural   Si3Ni4S
_chemical_formula_sum   'Si3 Ni4 S1'
_cell_volume   99.17606337
_cell_formula_units_Z   1
loop_
 _symmetry_equiv_pos_site_id
 _symmetry_equiv_pos_as_xyz
  1  'x, y, z'
  2  'x, -y, z'
loop_
 _atom_site_type_symbol
 _atom_site_label
 _atom_site_symmetry_multiplicity
 _atom_site_fract_x
 _atom_site_fract_y
 _atom_site_fract_z
 _atom_site_occupancy
  Si  Si0  1  0.17882738  0.50000000  0.93090343  1
  Si  Si1  1  0.68966762  0.50000000  0.59234408  1
  Si  Si2  1  0.81478269  0.00000000  0.07932216  1
  Ni  Ni3  1  0.00098922  0.50000000  0.30949533  1
  Ni  Ni4  1  0.49170121  0.00000000  0.80958794  1
  Ni  Ni5  1  0.51448017  0.50000000  0.19643203  1
  Ni  Ni6  1  0.99284920  0.00000000  0.69550777  1
  S  S7  1  0.31020251  0.00000000  0.42970726  1
