# generated using pymatgen
data_Si3Ni4As
_symmetry_space_group_name_H-M   Pm
_cell_length_a   5.21537071
_cell_length_b   3.41639845
_cell_length_c   5.67648501
_cell_angle_alpha   90.00000000
_cell_angle_beta   90.03068380
_cell_angle_gamma   90.00000000
_symmetry_Int_Tables_number   6
_chemical_formula_structural   Si3Ni4As
_chemical_formula_sum   'Si3 Ni4 As1'
_cell_volume   101.14237170
_cell_formula_units_Z   1
loop_
 _symmetry_equiv_pos_site_id
 _symmetry_equiv_pos_as_xyz
  1  'x, y, z'
  2  'x, -y, z'
loop_
 _atom_site_type_symbol
 _atom_site_label
 _atom_site_symmetry_multiplicity
 _atom_site_fract_x
 _atom_site_fract_y
 _atom_site_fract_z
 _atom_site_occupancy
  Si  Si0  1  0.18327430  0.00000000  0.92444121  1
  Si  Si1  1  0.31391079  0.50000000  0.41196535  1
  Si  Si2  1  0.82314963  0.50000000  0.08656550  1
  Ni  Ni3  1  0.00454075  0.50000000  0.69864404  1
  Ni  Ni4  1  0.01262127  0.00000000  0.31056351  1
  Ni  Ni5  1  0.48810663  0.50000000  0.82254773  1
  Ni  Ni6  1  0.50825605  0.00000000  0.19284935  1
  As  As7  1  0.68344058  0.00000000  0.59032330  1
