# generated using pymatgen
data_SiOsRu
_symmetry_space_group_name_H-M   P4mm
_cell_length_a   2.58216722
_cell_length_b   2.58216722
_cell_length_c   7.30393498
_cell_angle_alpha   90.00000000
_cell_angle_beta   90.00000000
_cell_angle_gamma   90.00000000
_symmetry_Int_Tables_number   99
_chemical_formula_structural   SiOsRu
_chemical_formula_sum   'Si1 Os1 Ru1'
_cell_volume   48.69962576
_cell_formula_units_Z   1
loop_
 _symmetry_equiv_pos_site_id
 _symmetry_equiv_pos_as_xyz
  1  'x, y, z'
  2  '-y, x, z'
  3  '-x, -y, z'
  4  'y, -x, z'
  5  '-x, y, z'
  6  'y, x, z'
  7  'x, -y, z'
  8  '-y, -x, z'
loop_
 _atom_site_type_symbol
 _atom_site_label
 _atom_site_symmetry_multiplicity
 _atom_site_fract_x
 _atom_site_fract_y
 _atom_site_fract_z
 _atom_site_occupancy
  Si  Si0  1  0.00000000  0.00000000  0.66527903  1
  Os  Os1  1  0.00000000  0.00000000  0.00226146  1
  Ru  Ru2  1  0.00000000  0.00000000  0.33235951  1
