# generated using pymatgen
data_SiSnTe4
_symmetry_space_group_name_H-M   'P 1'
_cell_length_a   6.89089141
_cell_length_b   5.95171388
_cell_length_c   6.52393083
_cell_angle_alpha   69.89286481
_cell_angle_beta   75.57684919
_cell_angle_gamma   104.43134199
_symmetry_Int_Tables_number   1
_chemical_formula_structural   SiSnTe4
_chemical_formula_sum   'Si1 Sn1 Te4'
_cell_volume   226.24308940
_cell_formula_units_Z   1
loop_
 _symmetry_equiv_pos_site_id
 _symmetry_equiv_pos_as_xyz
  1  'x, y, z'
loop_
 _atom_site_type_symbol
 _atom_site_label
 _atom_site_symmetry_multiplicity
 _atom_site_fract_x
 _atom_site_fract_y
 _atom_site_fract_z
 _atom_site_occupancy
  Si  Si0  1  0.77404122  0.79664495  0.84139573  1
  Sn  Sn1  1  0.20315165  0.22875426  -0.01847395  1
  Te  Te2  1  0.09600004  0.19824209  0.56763963  1
  Te  Te3  1  0.46197024  0.79490756  0.71019247  1
  Te  Te4  1  0.69746068  0.61821837  0.28112375  1
  Te  Te5  1  0.79687617  0.34713277  0.99312237  1
