# generated using pymatgen
data_Sm2S7
_symmetry_space_group_name_H-M   P1
_cell_length_a   4.44218158
_cell_length_b   7.58559685
_cell_length_c   7.83537833
_cell_angle_alpha   73.85215410
_cell_angle_beta   75.11797021
_cell_angle_gamma   88.40676716
_symmetry_Int_Tables_number   1
_chemical_formula_structural   Sm2S7
_chemical_formula_sum   'Sm2 S7'
_cell_volume   244.83138355
_cell_formula_units_Z   1
loop_
 _symmetry_equiv_pos_site_id
 _symmetry_equiv_pos_as_xyz
  1  'x, y, z'
loop_
 _atom_site_type_symbol
 _atom_site_label
 _atom_site_symmetry_multiplicity
 _atom_site_fract_x
 _atom_site_fract_y
 _atom_site_fract_z
 _atom_site_occupancy
  Sm  Sm0  1  0.11543788  0.21571683  0.94640732  1
  Sm  Sm1  1  0.61416017  0.75811611  0.02563186  1
  S  S2  1  0.04742149  0.50559441  0.15814552  1
  S  S3  1  0.09442297  0.14089113  0.63594030  1
  S  S4  1  0.19135357  0.89686148  0.80872384  1
  S  S5  1  0.54085656  0.05868609  0.14453420  1
  S  S6  1  0.64082573  0.50498839  0.37607352  1
  S  S7  1  0.66271093  0.49010534  0.80425703  1
  S  S8  1  0.68591069  0.66384023  0.54098641  1
