# generated using pymatgen
data_Sm2Tl3Cl
_symmetry_space_group_name_H-M   P1
_cell_length_a   3.96681903
_cell_length_b   4.97060266
_cell_length_c   11.61515224
_cell_angle_alpha   95.83504245
_cell_angle_beta   93.02568346
_cell_angle_gamma   90.01031202
_symmetry_Int_Tables_number   1
_chemical_formula_structural   Sm2Tl3Cl
_chemical_formula_sum   'Sm2 Tl3 Cl1'
_cell_volume   227.51376717
_cell_formula_units_Z   1
loop_
 _symmetry_equiv_pos_site_id
 _symmetry_equiv_pos_as_xyz
  1  'x, y, z'
loop_
 _atom_site_type_symbol
 _atom_site_label
 _atom_site_symmetry_multiplicity
 _atom_site_fract_x
 _atom_site_fract_y
 _atom_site_fract_z
 _atom_site_occupancy
  Sm  Sm0  1  0.43845082  0.91478071  0.61663669  1
  Sm  Sm1  1  0.98670726  0.98426276  0.91198312  1
  Tl  Tl2  1  0.48471355  0.48250714  0.90655404  1
  Tl  Tl3  1  0.95415944  0.43493856  0.70095716  1
  Tl  Tl4  1  0.99740266  0.53860039  0.14635156  1
  Cl  Cl5  1  0.91066627  0.87281044  0.44881743  1
