# generated using pymatgen
data_SmAsSe4
_symmetry_space_group_name_H-M   'P 1'
_cell_length_a   4.30776055
_cell_length_b   7.11877783
_cell_length_c   9.50030789
_cell_angle_alpha   126.59151322
_cell_angle_beta   129.22578301
_cell_angle_gamma   54.99147338
_symmetry_Int_Tables_number   1
_chemical_formula_structural   SmAsSe4
_chemical_formula_sum   'Sm1 As1 Se4'
_cell_volume   171.90167264
_cell_formula_units_Z   1
loop_
 _symmetry_equiv_pos_site_id
 _symmetry_equiv_pos_as_xyz
  1  'x, y, z'
loop_
 _atom_site_type_symbol
 _atom_site_label
 _atom_site_symmetry_multiplicity
 _atom_site_fract_x
 _atom_site_fract_y
 _atom_site_fract_z
 _atom_site_occupancy
  Sm  Sm0  1  0.02940921  0.29213412  0.06952165  1
  As  As1  1  0.53768240  0.71560388  0.71988604  1
  Se  Se2  1  0.24420509  0.14576415  0.76496058  1
  Se  Se3  1  -0.16921130  0.65734038  0.41857625  1
  Se  Se4  1  0.47173521  0.75206691  -0.02613639  1
  Se  Se5  1  0.93767939  0.23519056  0.32199187  1
