# generated using pymatgen
data_SmCl
_symmetry_space_group_name_H-M   Cm
_cell_length_a   6.35306627
_cell_length_b   3.49653433
_cell_length_c   4.72616479
_cell_angle_alpha   90.00000000
_cell_angle_beta   106.68248441
_cell_angle_gamma   90.00000000
_symmetry_Int_Tables_number   8
_chemical_formula_structural   SmCl
_chemical_formula_sum   'Sm2 Cl2'
_cell_volume   100.56685843
_cell_formula_units_Z   2
loop_
 _symmetry_equiv_pos_site_id
 _symmetry_equiv_pos_as_xyz
  1  'x, y, z'
  2  'x, -y, z'
  3  'x+1/2, y+1/2, z'
  4  'x+1/2, -y+1/2, z'
loop_
 _atom_site_type_symbol
 _atom_site_label
 _atom_site_symmetry_multiplicity
 _atom_site_fract_x
 _atom_site_fract_y
 _atom_site_fract_z
 _atom_site_occupancy
  Sm  Sm0  2  0.27446944  0.50000000  0.39420821  1
  Cl  Cl1  2  0.19785598  0.00000000  0.86399180  1
