# generated using pymatgen
data_SmCoI2
_symmetry_space_group_name_H-M   'P 1'
_cell_length_a   3.95778242
_cell_length_b   4.02647156
_cell_length_c   8.32246666
_cell_angle_alpha   90.00237164
_cell_angle_beta   91.67571320
_cell_angle_gamma   90.00209462
_symmetry_Int_Tables_number   1
_chemical_formula_structural   SmCoI2
_chemical_formula_sum   'Sm1 Co1 I2'
_cell_volume   132.56926447
_cell_formula_units_Z   1
loop_
 _symmetry_equiv_pos_site_id
 _symmetry_equiv_pos_as_xyz
  1  'x, y, z'
loop_
 _atom_site_type_symbol
 _atom_site_label
 _atom_site_symmetry_multiplicity
 _atom_site_fract_x
 _atom_site_fract_y
 _atom_site_fract_z
 _atom_site_occupancy
  Sm  Sm0  1  0.60223311  0.50000311  -0.05454565  1
  Co  Co1  1  0.10626509  -0.00001152  0.03673778  1
  I  I2  1  0.11916356  0.50001462  0.23712934  1
  I  I3  1  0.08733824  -0.00000621  0.73197853  1
