# generated using pymatgen
data_SmCuS2
_symmetry_space_group_name_H-M   'P 1'
_cell_length_a   3.98992068
_cell_length_b   3.98992059
_cell_length_c   6.17312175
_cell_angle_alpha   90.00005119
_cell_angle_beta   89.99994988
_cell_angle_gamma   120.00067323
_symmetry_Int_Tables_number   1
_chemical_formula_structural   SmCuS2
_chemical_formula_sum   'Sm1 Cu1 S2'
_cell_volume   85.10616901
_cell_formula_units_Z   1
loop_
 _symmetry_equiv_pos_site_id
 _symmetry_equiv_pos_as_xyz
  1  'x, y, z'
loop_
 _atom_site_type_symbol
 _atom_site_label
 _atom_site_symmetry_multiplicity
 _atom_site_fract_x
 _atom_site_fract_y
 _atom_site_fract_z
 _atom_site_occupancy
  Sm  Sm0  1  0.33333366  0.66666643  0.22788019  1
  Cu  Cu1  1  0.66666635  0.33333350  0.61500734  1
  S  S2  1  0.00000128  -0.00000128  0.50597302  1
  S  S3  1  0.66666538  0.33333468  -0.01106055  1
