# generated using pymatgen
data_SmMoCl
_symmetry_space_group_name_H-M   'P 1'
_cell_length_a   3.40159339
_cell_length_b   3.20723973
_cell_length_c   6.43570927
_cell_angle_alpha   89.99999527
_cell_angle_beta   89.99999898
_cell_angle_gamma   90.00479146
_symmetry_Int_Tables_number   1
_chemical_formula_structural   SmMoCl
_chemical_formula_sum   'Sm1 Mo1 Cl1'
_cell_volume   70.21182119
_cell_formula_units_Z   1
loop_
 _symmetry_equiv_pos_site_id
 _symmetry_equiv_pos_as_xyz
  1  'x, y, z'
loop_
 _atom_site_type_symbol
 _atom_site_label
 _atom_site_symmetry_multiplicity
 _atom_site_fract_x
 _atom_site_fract_y
 _atom_site_fract_z
 _atom_site_occupancy
  Sm  Sm0  1  0.50000000  0.50000003  0.59962367  1
  Mo  Mo1  1  -0.00000001  0.00000000  -0.08539120  1
  Cl  Cl2  1  0.00000001  0.49999997  0.21906753  1
