# generated using pymatgen
data_SmNiI2
_symmetry_space_group_name_H-M   'P 1'
_cell_length_a   4.10935774
_cell_length_b   4.04360701
_cell_length_c   8.04456311
_cell_angle_alpha   90.00035011
_cell_angle_beta   92.24263852
_cell_angle_gamma   89.99751597
_symmetry_Int_Tables_number   1
_chemical_formula_structural   SmNiI2
_chemical_formula_sum   'Sm1 Ni1 I2'
_cell_volume   133.57112637
_cell_formula_units_Z   1
loop_
 _symmetry_equiv_pos_site_id
 _symmetry_equiv_pos_as_xyz
  1  'x, y, z'
loop_
 _atom_site_type_symbol
 _atom_site_label
 _atom_site_symmetry_multiplicity
 _atom_site_fract_x
 _atom_site_fract_y
 _atom_site_fract_z
 _atom_site_occupancy
  Sm  Sm0  1  0.60229551  0.49999914  -0.04433719  1
  Ni  Ni1  1  0.09698033  -0.00000030  0.04955311  1
  I  I2  1  0.12804253  0.50000016  0.24631586  1
  I  I3  1  0.09668163  0.00000100  0.73566821  1
