# generated using pymatgen
data_SmPW
_symmetry_space_group_name_H-M   'P 1'
_cell_length_a   3.56387239
_cell_length_b   3.56387266
_cell_length_c   5.66629305
_cell_angle_alpha   90.00002131
_cell_angle_beta   89.99999911
_cell_angle_gamma   119.99999656
_symmetry_Int_Tables_number   1
_chemical_formula_structural   SmPW
_chemical_formula_sum   'Sm1 P1 W1'
_cell_volume   62.32668109
_cell_formula_units_Z   1
loop_
 _symmetry_equiv_pos_site_id
 _symmetry_equiv_pos_as_xyz
  1  'x, y, z'
loop_
 _atom_site_type_symbol
 _atom_site_label
 _atom_site_symmetry_multiplicity
 _atom_site_fract_x
 _atom_site_fract_y
 _atom_site_fract_z
 _atom_site_occupancy
  Sm  Sm0  1  0.33333329  0.66666659  -0.03057855  1
  P  P1  1  0.66666669  0.33333339  0.30729845  1
  W  W2  1  0.00000001  0.00000002  0.52568010  1
