# generated using pymatgen
data_SmSb2Pb
_symmetry_space_group_name_H-M   'P 1'
_cell_length_a   4.47085596
_cell_length_b   4.47085579
_cell_length_c   6.56050747
_cell_angle_alpha   89.99999175
_cell_angle_beta   89.99999490
_cell_angle_gamma   90.00002537
_symmetry_Int_Tables_number   1
_chemical_formula_structural   SmSb2Pb
_chemical_formula_sum   'Sm1 Sb2 Pb1'
_cell_volume   131.13504638
_cell_formula_units_Z   1
loop_
 _symmetry_equiv_pos_site_id
 _symmetry_equiv_pos_as_xyz
  1  'x, y, z'
loop_
 _atom_site_type_symbol
 _atom_site_label
 _atom_site_symmetry_multiplicity
 _atom_site_fract_x
 _atom_site_fract_y
 _atom_site_fract_z
 _atom_site_occupancy
  Sm  Sm0  1  0.50000002  0.50000000  0.50000001  1
  Sb  Sb1  1  0.00000003  -0.00000001  0.50000001  1
  Sb  Sb2  1  0.50000002  0.49999998  0.00000001  1
  Pb  Pb3  1  -0.00000006  0.00000003  -0.00000003  1
