# generated using pymatgen
data_SmSnI2
_symmetry_space_group_name_H-M   'P 1'
_cell_length_a   8.11878936
_cell_length_b   3.95518820
_cell_length_c   5.69461213
_cell_angle_alpha   89.99942966
_cell_angle_beta   126.78413356
_cell_angle_gamma   90.00677839
_symmetry_Int_Tables_number   1
_chemical_formula_structural   SmSnI2
_chemical_formula_sum   'Sm1 Sn1 I2'
_cell_volume   146.45336676
_cell_formula_units_Z   1
loop_
 _symmetry_equiv_pos_site_id
 _symmetry_equiv_pos_as_xyz
  1  'x, y, z'
loop_
 _atom_site_type_symbol
 _atom_site_label
 _atom_site_symmetry_multiplicity
 _atom_site_fract_x
 _atom_site_fract_y
 _atom_site_fract_z
 _atom_site_occupancy
  Sm  Sm0  1  0.02438274  0.49998440  0.51381525  1
  Sn  Sn1  1  -0.14865719  -0.00005592  -0.11075737  1
  I  I2  1  0.23864888  0.50002690  0.19762602  1
  I  I3  1  0.40962557  0.00004462  0.84701610  1
