# generated using pymatgen
data_Sn3RhSe4
_symmetry_space_group_name_H-M   Pm
_cell_length_a   5.10700371
_cell_length_b   3.94210565
_cell_length_c   10.24894398
_cell_angle_alpha   90.00000000
_cell_angle_beta   91.49728452
_cell_angle_gamma   90.00000000
_symmetry_Int_Tables_number   6
_chemical_formula_structural   Sn3RhSe4
_chemical_formula_sum   'Sn3 Rh1 Se4'
_cell_volume   206.26485865
_cell_formula_units_Z   1
loop_
 _symmetry_equiv_pos_site_id
 _symmetry_equiv_pos_as_xyz
  1  'x, y, z'
  2  'x, -y, z'
loop_
 _atom_site_type_symbol
 _atom_site_label
 _atom_site_symmetry_multiplicity
 _atom_site_fract_x
 _atom_site_fract_y
 _atom_site_fract_z
 _atom_site_occupancy
  Sn  Sn0  1  0.15732361  0.50000000  0.62111329  1
  Sn  Sn1  1  0.38286367  0.50000000  0.04671283  1
  Sn  Sn2  1  0.82080814  0.00000000  0.38495830  1
  Rh  Rh3  1  0.69987059  0.00000000  0.93815890  1
  Se  Se4  1  0.46761497  0.50000000  0.32427106  1
  Se  Se5  1  0.48999084  0.00000000  0.70713481  1
  Se  Se6  1  0.95368404  0.50000000  0.86595373  1
  Se  Se7  1  0.99404415  0.00000000  0.13009708  1
