# generated using pymatgen
data_SnCl3
_symmetry_space_group_name_H-M   P-6m2
_cell_length_a   4.89170581
_cell_length_b   4.89170581
_cell_length_c   7.79817984
_cell_angle_alpha   90.00000000
_cell_angle_beta   90.00000000
_cell_angle_gamma   120.00000000
_symmetry_Int_Tables_number   187
_chemical_formula_structural   SnCl3
_chemical_formula_sum   'Sn1 Cl3'
_cell_volume   161.60118401
_cell_formula_units_Z   1
loop_
 _symmetry_equiv_pos_site_id
 _symmetry_equiv_pos_as_xyz
  1  'x, y, z'
  2  '-x+y, -x, -z'
  3  '-y, x-y, z'
  4  'x, y, -z'
  5  '-x+y, -x, z'
  6  '-y, x-y, -z'
  7  '-y, -x, -z'
  8  'x, x-y, z'
  9  '-x+y, y, -z'
  10  '-y, -x, z'
  11  'x, x-y, -z'
  12  '-x+y, y, z'
loop_
 _atom_site_type_symbol
 _atom_site_label
 _atom_site_symmetry_multiplicity
 _atom_site_fract_x
 _atom_site_fract_y
 _atom_site_fract_z
 _atom_site_occupancy
  Sn  Sn0  1  0.33333333  0.66666667  0.50000000  1
  Cl  Cl1  2  0.33333333  0.66666667  0.81328519  1
  Cl  Cl2  1  0.00000000  0.00000000  0.50000000  1
