# generated using pymatgen
data_SnF7
_symmetry_space_group_name_H-M   P1
_cell_length_a   5.24757304
_cell_length_b   5.27912209
_cell_length_c   5.82908951
_cell_angle_alpha   66.72703087
_cell_angle_beta   65.67822404
_cell_angle_gamma   60.97797703
_symmetry_Int_Tables_number   1
_chemical_formula_structural   SnF7
_chemical_formula_sum   'Sn1 F7'
_cell_volume   124.74718249
_cell_formula_units_Z   1
loop_
 _symmetry_equiv_pos_site_id
 _symmetry_equiv_pos_as_xyz
  1  'x, y, z'
loop_
 _atom_site_type_symbol
 _atom_site_label
 _atom_site_symmetry_multiplicity
 _atom_site_fract_x
 _atom_site_fract_y
 _atom_site_fract_z
 _atom_site_occupancy
  Sn  Sn0  1  0.96232252  0.11773668  0.13711319  1
  F  F1  1  0.01361890  0.00508703  0.83549413  1
  F  F2  1  0.03005370  0.38555284  0.24271564  1
  F  F3  1  0.26195738  0.37100076  0.65617635  1
  F  F4  1  0.39946858  0.89502848  0.13608151  1
  F  F5  1  0.42924558  0.52630886  0.64431877  1
  F  F6  1  0.60840200  0.46770161  0.02394152  1
  F  F7  1  0.76973134  0.88998374  0.44725889  1
