# generated using pymatgen
data_SnF
_symmetry_space_group_name_H-M   Amm2
_cell_length_a   3.05996898
_cell_length_b   3.14805076
_cell_length_c   8.62989686
_cell_angle_alpha   90.00000000
_cell_angle_beta   90.00000000
_cell_angle_gamma   90.00000000
_symmetry_Int_Tables_number   38
_chemical_formula_structural   SnF
_chemical_formula_sum   'Sn2 F2'
_cell_volume   83.13125856
_cell_formula_units_Z   2
loop_
 _symmetry_equiv_pos_site_id
 _symmetry_equiv_pos_as_xyz
  1  'x, y, z'
  2  '-x, -y, z'
  3  '-x, y, z'
  4  'x, -y, z'
  5  'x, y+1/2, z+1/2'
  6  '-x, -y+1/2, z+1/2'
  7  '-x, y+1/2, z+1/2'
  8  'x, -y+1/2, z+1/2'
loop_
 _atom_site_type_symbol
 _atom_site_label
 _atom_site_symmetry_multiplicity
 _atom_site_fract_x
 _atom_site_fract_y
 _atom_site_fract_z
 _atom_site_occupancy
  Sn  Sn0  2  0.50000000  0.00000000  0.36284037  1
  F  F1  2  0.00000000  0.00000000  0.16055072  1
