# generated using pymatgen
data_SnPtCl
_symmetry_space_group_name_H-M   'P 1'
_cell_length_a   3.10448816
_cell_length_b   4.18194972
_cell_length_c   5.76124273
_cell_angle_alpha   89.99627181
_cell_angle_beta   89.99227581
_cell_angle_gamma   90.00106717
_symmetry_Int_Tables_number   1
_chemical_formula_structural   SnPtCl
_chemical_formula_sum   'Sn1 Pt1 Cl1'
_cell_volume   74.79713849
_cell_formula_units_Z   1
loop_
 _symmetry_equiv_pos_site_id
 _symmetry_equiv_pos_as_xyz
  1  'x, y, z'
loop_
 _atom_site_type_symbol
 _atom_site_label
 _atom_site_symmetry_multiplicity
 _atom_site_fract_x
 _atom_site_fract_y
 _atom_site_fract_z
 _atom_site_occupancy
  Sn  Sn0  1  0.49996450  0.50000741  0.82864311  1
  Pt  Pt1  1  -0.00001774  0.00001420  -0.29910476  1
  Cl  Cl2  1  0.00005324  0.49997839  0.20376165  1
