# generated using pymatgen
data_Sr2PI
_symmetry_space_group_name_H-M   'P 1'
_cell_length_a   4.61510310
_cell_length_b   4.61511123
_cell_length_c   6.36259978
_cell_angle_alpha   90.00000272
_cell_angle_beta   89.99997800
_cell_angle_gamma   90.00000894
_symmetry_Int_Tables_number   1
_chemical_formula_structural   Sr2PI
_chemical_formula_sum   'Sr2 P1 I1'
_cell_volume   135.51837523
_cell_formula_units_Z   1
loop_
 _symmetry_equiv_pos_site_id
 _symmetry_equiv_pos_as_xyz
  1  'x, y, z'
loop_
 _atom_site_type_symbol
 _atom_site_label
 _atom_site_symmetry_multiplicity
 _atom_site_fract_x
 _atom_site_fract_y
 _atom_site_fract_z
 _atom_site_occupancy
  Sr  Sr0  1  -0.00000003  0.00000000  0.50000002  1
  Sr  Sr1  1  0.50000001  0.50000001  0.00000001  1
  P  P2  1  0.00000002  0.00000002  -0.00000002  1
  I  I3  1  0.50000000  0.49999997  0.49999999  1
