# generated using pymatgen
data_Sr4Si3Ir
_symmetry_space_group_name_H-M   Pm
_cell_length_a   6.09959000
_cell_length_b   4.10464389
_cell_length_c   8.92092876
_cell_angle_alpha   90.00000000
_cell_angle_beta   90.78664046
_cell_angle_gamma   90.00000000
_symmetry_Int_Tables_number   6
_chemical_formula_structural   Sr4Si3Ir
_chemical_formula_sum   'Sr4 Si3 Ir1'
_cell_volume   223.32907460
_cell_formula_units_Z   1
loop_
 _symmetry_equiv_pos_site_id
 _symmetry_equiv_pos_as_xyz
  1  'x, y, z'
  2  'x, -y, z'
loop_
 _atom_site_type_symbol
 _atom_site_label
 _atom_site_symmetry_multiplicity
 _atom_site_fract_x
 _atom_site_fract_y
 _atom_site_fract_z
 _atom_site_occupancy
  Sr  Sr0  1  0.10755879  0.50000000  0.31864488  1
  Sr  Sr1  1  0.40342065  0.50000000  0.81871624  1
  Sr  Sr2  1  0.60484190  0.00000000  0.17461670  1
  Sr  Sr3  1  0.88912747  0.00000000  0.68436038  1
  Si  Si4  1  0.08526579  0.00000000  0.02534442  1
  Si  Si5  1  0.39132955  0.00000000  0.53254444  1
  Si  Si6  1  0.60310410  0.50000000  0.46228120  1
  Ir  Ir7  1  0.92155176  0.50000000  0.97379175  1
