# generated using pymatgen
data_SrAsIr
_symmetry_space_group_name_H-M   Pmm2
_cell_length_a   2.74047720
_cell_length_b   2.86047836
_cell_length_c   10.78689718
_cell_angle_alpha   90.00000000
_cell_angle_beta   90.00000000
_cell_angle_gamma   90.00000000
_symmetry_Int_Tables_number   25
_chemical_formula_structural   SrAsIr
_chemical_formula_sum   'Sr1 As1 Ir1'
_cell_volume   84.55930392
_cell_formula_units_Z   1
loop_
 _symmetry_equiv_pos_site_id
 _symmetry_equiv_pos_as_xyz
  1  'x, y, z'
  2  '-x, -y, z'
  3  '-x, y, z'
  4  'x, -y, z'
loop_
 _atom_site_type_symbol
 _atom_site_label
 _atom_site_symmetry_multiplicity
 _atom_site_fract_x
 _atom_site_fract_y
 _atom_site_fract_z
 _atom_site_occupancy
  Sr  Sr0  1  0.00000000  0.00000000  0.65740745  1
  As  As1  1  0.00000000  0.00000000  0.94455209  1
  Ir  Ir2  1  0.00000000  0.00000000  0.39804046  1
