# generated using pymatgen
data_SrCdBr2
_symmetry_space_group_name_H-M   'P 1'
_cell_length_a   6.20303254
_cell_length_b   4.49374251
_cell_length_c   7.65183879
_cell_angle_alpha   89.99997243
_cell_angle_beta   103.61442284
_cell_angle_gamma   90.00000476
_symmetry_Int_Tables_number   1
_chemical_formula_structural   SrCdBr2
_chemical_formula_sum   'Sr1 Cd1 Br2'
_cell_volume   207.30053911
_cell_formula_units_Z   1
loop_
 _symmetry_equiv_pos_site_id
 _symmetry_equiv_pos_as_xyz
  1  'x, y, z'
loop_
 _atom_site_type_symbol
 _atom_site_label
 _atom_site_symmetry_multiplicity
 _atom_site_fract_x
 _atom_site_fract_y
 _atom_site_fract_z
 _atom_site_occupancy
  Sr  Sr0  1  0.51933616  0.50000001  -0.11113356  1
  Cd  Cd1  1  -0.03825163  0.00000005  0.02588849  1
  Br  Br2  1  0.28717322  0.49999981  0.18088672  1
  Br  Br3  1  0.25974225  0.00000014  0.69205835  1
