# generated using pymatgen
data_SrClF
_symmetry_space_group_name_H-M   'P 1'
_cell_length_a   4.15511420
_cell_length_b   4.15511418
_cell_length_c   4.38558193
_cell_angle_alpha   89.99999942
_cell_angle_beta   90.00000081
_cell_angle_gamma   120.00007373
_symmetry_Int_Tables_number   1
_chemical_formula_structural   SrClF
_chemical_formula_sum   'Sr1 Cl1 F1'
_cell_volume   65.57276020
_cell_formula_units_Z   1
loop_
 _symmetry_equiv_pos_site_id
 _symmetry_equiv_pos_as_xyz
  1  'x, y, z'
loop_
 _atom_site_type_symbol
 _atom_site_label
 _atom_site_symmetry_multiplicity
 _atom_site_fract_x
 _atom_site_fract_y
 _atom_site_fract_z
 _atom_site_occupancy
  Sr  Sr0  1  -0.00000004  0.00000004  -0.00000000  1
  Cl  Cl1  1  0.33333333  0.66666666  0.50000001  1
  F  F2  1  0.66666671  0.33333329  -0.00000001  1
