# generated using pymatgen
data_SrF2
_symmetry_space_group_name_H-M   C2
_cell_length_a   5.54094320
_cell_length_b   5.59126162
_cell_length_c   6.28648294
_cell_angle_alpha   90.00000000
_cell_angle_beta   92.44624335
_cell_angle_gamma   90.00000000
_symmetry_Int_Tables_number   5
_chemical_formula_structural   SrF2
_chemical_formula_sum   'Sr4 F8'
_cell_volume   194.58318323
_cell_formula_units_Z   4
loop_
 _symmetry_equiv_pos_site_id
 _symmetry_equiv_pos_as_xyz
  1  'x, y, z'
  2  '-x, y, -z'
  3  'x+1/2, y+1/2, z'
  4  '-x+1/2, y+1/2, -z'
loop_
 _atom_site_type_symbol
 _atom_site_label
 _atom_site_symmetry_multiplicity
 _atom_site_fract_x
 _atom_site_fract_y
 _atom_site_fract_z
 _atom_site_occupancy
  Sr  Sr0  4  0.23475824  0.22705028  0.76355249  1
  F  F1  4  0.23158359  0.28457289  0.37760521  1
  F  F2  2  0.00000000  0.48812063  0.00000000  1
  F  F3  2  0.00000000  0.97976063  0.00000000  1
