# generated using pymatgen
data_SrGeAs2
_symmetry_space_group_name_H-M   'P 1'
_cell_length_a   4.54445196
_cell_length_b   4.36458579
_cell_length_c   5.67699639
_cell_angle_alpha   89.91799747
_cell_angle_beta   100.29054848
_cell_angle_gamma   90.00573375
_symmetry_Int_Tables_number   1
_chemical_formula_structural   SrGeAs2
_chemical_formula_sum   'Sr1 Ge1 As2'
_cell_volume   110.78987909
_cell_formula_units_Z   1
loop_
 _symmetry_equiv_pos_site_id
 _symmetry_equiv_pos_as_xyz
  1  'x, y, z'
loop_
 _atom_site_type_symbol
 _atom_site_label
 _atom_site_symmetry_multiplicity
 _atom_site_fract_x
 _atom_site_fract_y
 _atom_site_fract_z
 _atom_site_occupancy
  Sr  Sr0  1  0.73100392  0.50005719  0.24206183  1
  Ge  Ge1  1  0.30918889  0.00023385  0.52098904  1
  As  As2  1  0.17790095  0.00013400  0.08823418  1
  As  As3  1  0.27190625  0.49957497  0.74871495  1
