# generated using pymatgen
data_SrGeI4
_symmetry_space_group_name_H-M   'P 1'
_cell_length_a   4.62742313
_cell_length_b   8.73556915
_cell_length_c   7.97071991
_cell_angle_alpha   93.95535682
_cell_angle_beta   89.81858514
_cell_angle_gamma   66.71432979
_symmetry_Int_Tables_number   1
_chemical_formula_structural   SrGeI4
_chemical_formula_sum   'Sr1 Ge1 I4'
_cell_volume   295.08911519
_cell_formula_units_Z   1
loop_
 _symmetry_equiv_pos_site_id
 _symmetry_equiv_pos_as_xyz
  1  'x, y, z'
loop_
 _atom_site_type_symbol
 _atom_site_label
 _atom_site_symmetry_multiplicity
 _atom_site_fract_x
 _atom_site_fract_y
 _atom_site_fract_z
 _atom_site_occupancy
  Sr  Sr0  1  0.57133159  0.73026176  0.84392129  1
  Ge  Ge1  1  0.10893105  0.73036581  0.34508465  1
  I  I2  1  0.36921532  0.94818784  0.50941030  1
  I  I3  1  0.24162384  0.50585347  0.63880129  1
  I  I4  1  0.69446432  0.51383893  0.18007154  1
  I  I5  1  -0.09426613  -0.04760781  0.05051094  1
