# generated using pymatgen
data_SrHCl
_symmetry_space_group_name_H-M   'P 1'
_cell_length_a   4.08235979
_cell_length_b   4.08236064
_cell_length_c   4.32123616
_cell_angle_alpha   90.00000705
_cell_angle_beta   89.99999646
_cell_angle_gamma   119.99999111
_symmetry_Int_Tables_number   1
_chemical_formula_structural   SrHCl
_chemical_formula_sum   'Sr1 H1 Cl1'
_cell_volume   62.36792821
_cell_formula_units_Z   1
loop_
 _symmetry_equiv_pos_site_id
 _symmetry_equiv_pos_as_xyz
  1  'x, y, z'
loop_
 _atom_site_type_symbol
 _atom_site_label
 _atom_site_symmetry_multiplicity
 _atom_site_fract_x
 _atom_site_fract_y
 _atom_site_fract_z
 _atom_site_occupancy
  Sr  Sr0  1  -0.00000001  0.00000006  -0.00000005  1
  H  H1  1  0.33333331  0.66666665  -0.00000003  1
  Cl  Cl2  1  0.66666670  0.33333329  0.50000009  1
