# generated using pymatgen
data_SrHgSb
_symmetry_space_group_name_H-M   'P 1'
_cell_length_a   4.83698103
_cell_length_b   4.83698257
_cell_length_c   4.74017285
_cell_angle_alpha   90.00009595
_cell_angle_beta   89.99998324
_cell_angle_gamma   119.99999561
_symmetry_Int_Tables_number   1
_chemical_formula_structural   SrHgSb
_chemical_formula_sum   'Sr1 Hg1 Sb1'
_cell_volume   96.04477337
_cell_formula_units_Z   1
loop_
 _symmetry_equiv_pos_site_id
 _symmetry_equiv_pos_as_xyz
  1  'x, y, z'
loop_
 _atom_site_type_symbol
 _atom_site_label
 _atom_site_symmetry_multiplicity
 _atom_site_fract_x
 _atom_site_fract_y
 _atom_site_fract_z
 _atom_site_occupancy
  Sr  Sr0  1  0.33333331  0.66666681  0.68858320  1
  Hg  Hg1  1  0.00000002  0.00000007  0.05591138  1
  Sb  Sb2  1  0.66666666  0.33333311  0.25550542  1
