# generated using pymatgen
data_SrZnCl2
_symmetry_space_group_name_H-M   'P 1'
_cell_length_a   5.81850856
_cell_length_b   4.32922831
_cell_length_c   6.97870823
_cell_angle_alpha   90.00000073
_cell_angle_beta   84.71813676
_cell_angle_gamma   89.99999915
_symmetry_Int_Tables_number   1
_chemical_formula_structural   SrZnCl2
_chemical_formula_sum   'Sr1 Zn1 Cl2'
_cell_volume   175.04480228
_cell_formula_units_Z   1
loop_
 _symmetry_equiv_pos_site_id
 _symmetry_equiv_pos_as_xyz
  1  'x, y, z'
loop_
 _atom_site_type_symbol
 _atom_site_label
 _atom_site_symmetry_multiplicity
 _atom_site_fract_x
 _atom_site_fract_y
 _atom_site_fract_z
 _atom_site_occupancy
  Sr  Sr0  1  -0.02910704  0.50000001  0.55034605  1
  Zn  Zn1  1  0.57267107  0.00000000  0.43696932  1
  Cl  Cl2  1  0.16186515  0.00000001  0.73865521  1
  Cl  Cl3  1  0.35257081  0.49999998  0.28132942  1
