# generated using pymatgen
data_TbAsPd
_symmetry_space_group_name_H-M   'P 1'
_cell_length_a   3.95675588
_cell_length_b   4.35822172
_cell_length_c   3.94177341
_cell_angle_alpha   90.00000179
_cell_angle_beta   89.99999608
_cell_angle_gamma   90.00000429
_symmetry_Int_Tables_number   1
_chemical_formula_structural   TbAsPd
_chemical_formula_sum   'Tb1 As1 Pd1'
_cell_volume   67.97359393
_cell_formula_units_Z   1
loop_
 _symmetry_equiv_pos_site_id
 _symmetry_equiv_pos_as_xyz
  1  'x, y, z'
loop_
 _atom_site_type_symbol
 _atom_site_label
 _atom_site_symmetry_multiplicity
 _atom_site_fract_x
 _atom_site_fract_y
 _atom_site_fract_z
 _atom_site_occupancy
  Tb  Tb0  1  0.00000001  -0.00000000  0.00000000  1
  As  As1  1  0.00000000  0.50000000  0.50000000  1
  Pd  Pd2  1  0.49999998  0.50000001  0.00000000  1
