# generated using pymatgen
data_TbDySb2
_symmetry_space_group_name_H-M   'P 1'
_cell_length_a   4.39532785
_cell_length_b   4.39532807
_cell_length_c   6.21469779
_cell_angle_alpha   89.99999763
_cell_angle_beta   90.00000411
_cell_angle_gamma   89.99998905
_symmetry_Int_Tables_number   1
_chemical_formula_structural   TbDySb2
_chemical_formula_sum   'Tb1 Dy1 Sb2'
_cell_volume   120.06117408
_cell_formula_units_Z   1
loop_
 _symmetry_equiv_pos_site_id
 _symmetry_equiv_pos_as_xyz
  1  'x, y, z'
loop_
 _atom_site_type_symbol
 _atom_site_label
 _atom_site_symmetry_multiplicity
 _atom_site_fract_x
 _atom_site_fract_y
 _atom_site_fract_z
 _atom_site_occupancy
  Tb  Tb0  1  0.49999997  0.50000000  0.50000001  1
  Dy  Dy1  1  0.00000000  -0.00000002  0.00000001  1
  Sb  Sb2  1  0.00000000  0.00000002  0.49999999  1
  Sb  Sb3  1  0.50000003  0.50000001  -0.00000001  1
