# generated using pymatgen
data_TbGdAs2
_symmetry_space_group_name_H-M   'P 1'
_cell_length_a   4.14956072
_cell_length_b   4.14955664
_cell_length_c   5.86875600
_cell_angle_alpha   89.99995849
_cell_angle_beta   89.99998057
_cell_angle_gamma   90.00003148
_symmetry_Int_Tables_number   1
_chemical_formula_structural   TbGdAs2
_chemical_formula_sum   'Tb1 Gd1 As2'
_cell_volume   101.05315436
_cell_formula_units_Z   1
loop_
 _symmetry_equiv_pos_site_id
 _symmetry_equiv_pos_as_xyz
  1  'x, y, z'
loop_
 _atom_site_type_symbol
 _atom_site_label
 _atom_site_symmetry_multiplicity
 _atom_site_fract_x
 _atom_site_fract_y
 _atom_site_fract_z
 _atom_site_occupancy
  Tb  Tb0  1  0.50000001  0.49999999  0.00000000  1
  Gd  Gd1  1  0.00000004  0.00000007  0.50000007  1
  As  As2  1  -0.00000003  0.00000000  -0.00000007  1
  As  As3  1  0.49999997  0.49999994  0.50000000  1
