# generated using pymatgen
data_TbPbS2
_symmetry_space_group_name_H-M   'P 1'
_cell_length_a   3.78932452
_cell_length_b   3.78929394
_cell_length_c   8.34094710
_cell_angle_alpha   90.00532126
_cell_angle_beta   89.99623099
_cell_angle_gamma   89.99907428
_symmetry_Int_Tables_number   1
_chemical_formula_structural   TbPbS2
_chemical_formula_sum   'Tb1 Pb1 S2'
_cell_volume   119.76652818
_cell_formula_units_Z   1
loop_
 _symmetry_equiv_pos_site_id
 _symmetry_equiv_pos_as_xyz
  1  'x, y, z'
loop_
 _atom_site_type_symbol
 _atom_site_label
 _atom_site_symmetry_multiplicity
 _atom_site_fract_x
 _atom_site_fract_y
 _atom_site_fract_z
 _atom_site_occupancy
  Tb  Tb0  1  0.50000160  0.49998804  0.42950869  1
  Pb  Pb1  1  0.00001222  -0.00000436  -0.02249052  1
  S  S2  1  -0.00000726  0.00000460  0.50313797  1
  S  S3  1  0.49999344  0.50001172  0.11304387  1
