# generated using pymatgen
data_TbTmN2
_symmetry_space_group_name_H-M   'P 1'
_cell_length_a   3.45139373
_cell_length_b   3.45139391
_cell_length_c   4.88308545
_cell_angle_alpha   89.99999134
_cell_angle_beta   89.99999311
_cell_angle_gamma   89.99998904
_symmetry_Int_Tables_number   1
_chemical_formula_structural   TbTmN2
_chemical_formula_sum   'Tb1 Tm1 N2'
_cell_volume   58.16789644
_cell_formula_units_Z   1
loop_
 _symmetry_equiv_pos_site_id
 _symmetry_equiv_pos_as_xyz
  1  'x, y, z'
loop_
 _atom_site_type_symbol
 _atom_site_label
 _atom_site_symmetry_multiplicity
 _atom_site_fract_x
 _atom_site_fract_y
 _atom_site_fract_z
 _atom_site_occupancy
  Tb  Tb0  1  0.00000003  -0.00000001  -0.00000003  1
  Tm  Tm1  1  0.49999996  0.49999999  0.50000001  1
  N  N2  1  -0.00000001  -0.00000000  0.50000001  1
  N  N3  1  0.50000002  0.50000002  0.00000001  1
