# generated using pymatgen
data_TeAsF
_symmetry_space_group_name_H-M   P1
_cell_length_a   3.76914708
_cell_length_b   4.84200674
_cell_length_c   5.07619599
_cell_angle_alpha   70.79354191
_cell_angle_beta   88.68440860
_cell_angle_gamma   86.77848086
_symmetry_Int_Tables_number   1
_chemical_formula_structural   TeAsF
_chemical_formula_sum   'Te1 As1 F1'
_cell_volume   87.34603332
_cell_formula_units_Z   1
loop_
 _symmetry_equiv_pos_site_id
 _symmetry_equiv_pos_as_xyz
  1  'x, y, z'
loop_
 _atom_site_type_symbol
 _atom_site_label
 _atom_site_symmetry_multiplicity
 _atom_site_fract_x
 _atom_site_fract_y
 _atom_site_fract_z
 _atom_site_occupancy
  Te  Te0  1  0.45330291  0.16023899  0.60407401  1
  As  As1  1  0.95310062  0.99029637  0.98479699  1
  F  F2  1  0.97359647  0.59536464  0.03862900  1
