# generated using pymatgen
data_TeAuCl2
_symmetry_space_group_name_H-M   Pm
_cell_length_a   7.72450066
_cell_length_b   3.83846744
_cell_length_c   9.46050102
_cell_angle_alpha   90.00000000
_cell_angle_beta   100.12049848
_cell_angle_gamma   90.00000000
_symmetry_Int_Tables_number   6
_chemical_formula_structural   TeAuCl2
_chemical_formula_sum   'Te1 Au1 Cl2'
_cell_volume   276.14159612
_cell_formula_units_Z   1
loop_
 _symmetry_equiv_pos_site_id
 _symmetry_equiv_pos_as_xyz
  1  'x, y, z'
  2  'x, -y, z'
loop_
 _atom_site_type_symbol
 _atom_site_label
 _atom_site_symmetry_multiplicity
 _atom_site_fract_x
 _atom_site_fract_y
 _atom_site_fract_z
 _atom_site_occupancy
  Te  Te0  1  0.45013327  0.50000000  0.37876426  1
  Au  Au1  1  0.25674226  0.00000000  0.22600590  1
  Cl  Cl2  1  0.07573641  0.50000000  0.10365329  1
  Cl  Cl3  1  0.71738806  0.50000000  0.29157655  1
