# generated using pymatgen
data_TeAu
_symmetry_space_group_name_H-M   P4mm
_cell_length_a   2.86860996
_cell_length_b   2.86860996
_cell_length_c   13.95928201
_cell_angle_alpha   90.00000000
_cell_angle_beta   90.00000000
_cell_angle_gamma   90.00000000
_symmetry_Int_Tables_number   99
_chemical_formula_structural   TeAu
_chemical_formula_sum   'Te1 Au1'
_cell_volume   114.86985823
_cell_formula_units_Z   1
loop_
 _symmetry_equiv_pos_site_id
 _symmetry_equiv_pos_as_xyz
  1  'x, y, z'
  2  '-y, x, z'
  3  '-x, -y, z'
  4  'y, -x, z'
  5  '-x, y, z'
  6  'y, x, z'
  7  'x, -y, z'
  8  '-y, -x, z'
loop_
 _atom_site_type_symbol
 _atom_site_label
 _atom_site_symmetry_multiplicity
 _atom_site_fract_x
 _atom_site_fract_y
 _atom_site_fract_z
 _atom_site_occupancy
  Te  Te0  1  0.00000000  0.00000000  0.35515437  1
  Au  Au1  1  0.00000000  0.00000000  0.91104563  1
