# generated using pymatgen
data_TeCl2O
_symmetry_space_group_name_H-M   'P 1'
_cell_length_a   4.39978543
_cell_length_b   4.39978569
_cell_length_c   5.27882707
_cell_angle_alpha   90.00002010
_cell_angle_beta   90.00031105
_cell_angle_gamma   89.99999714
_symmetry_Int_Tables_number   1
_chemical_formula_structural   TeCl2O
_chemical_formula_sum   'Te1 Cl2 O1'
_cell_volume   102.18813079
_cell_formula_units_Z   1
loop_
 _symmetry_equiv_pos_site_id
 _symmetry_equiv_pos_as_xyz
  1  'x, y, z'
loop_
 _atom_site_type_symbol
 _atom_site_label
 _atom_site_symmetry_multiplicity
 _atom_site_fract_x
 _atom_site_fract_y
 _atom_site_fract_z
 _atom_site_occupancy
  Te  Te0  1  0.49999949  0.49999988  -0.00077425  1
  Cl  Cl1  1  -0.00000042  -0.00000047  0.13681605  1
  Cl  Cl2  1  0.50000029  0.50000040  0.48186582  1
  O  O3  1  0.00000063  0.00000019  0.42819237  1
