# generated using pymatgen
data_TeClO
_symmetry_space_group_name_H-M   P1
_cell_length_a   3.54917326
_cell_length_b   3.93074998
_cell_length_c   5.95810836
_cell_angle_alpha   71.81150361
_cell_angle_beta   76.70863039
_cell_angle_gamma   81.01432849
_symmetry_Int_Tables_number   1
_chemical_formula_structural   TeClO
_chemical_formula_sum   'Te1 Cl1 O1'
_cell_volume   76.53155835
_cell_formula_units_Z   1
loop_
 _symmetry_equiv_pos_site_id
 _symmetry_equiv_pos_as_xyz
  1  'x, y, z'
loop_
 _atom_site_type_symbol
 _atom_site_label
 _atom_site_symmetry_multiplicity
 _atom_site_fract_x
 _atom_site_fract_y
 _atom_site_fract_z
 _atom_site_occupancy
  Te  Te0  1  0.77678285  0.87557627  0.88387319  1
  Cl  Cl1  1  0.57970754  0.73033452  0.30776433  1
  O  O2  1  0.98480961  0.39188921  0.87006248  1
