# generated using pymatgen
data_TeF
_symmetry_space_group_name_H-M   P-1
_cell_length_a   2.92860918
_cell_length_b   3.60922067
_cell_length_c   4.50012967
_cell_angle_alpha   104.15722399
_cell_angle_beta   92.99783209
_cell_angle_gamma   94.78852792
_symmetry_Int_Tables_number   2
_chemical_formula_structural   TeF
_chemical_formula_sum   'Te1 F1'
_cell_volume   45.83036480
_cell_formula_units_Z   1
loop_
 _symmetry_equiv_pos_site_id
 _symmetry_equiv_pos_as_xyz
  1  'x, y, z'
  2  '-x, -y, -z'
loop_
 _atom_site_type_symbol
 _atom_site_label
 _atom_site_symmetry_multiplicity
 _atom_site_fract_x
 _atom_site_fract_y
 _atom_site_fract_z
 _atom_site_occupancy
  Te  Te0  1  0.00000000  0.00000000  0.50000000  1
  F  F1  1  0.00000000  0.00000000  0.00000000  1
