# generated using pymatgen
data_TeRh
_symmetry_space_group_name_H-M   Cm
_cell_length_a   7.39589746
_cell_length_b   3.43924270
_cell_length_c   4.20978093
_cell_angle_alpha   90.00000000
_cell_angle_beta   115.13649460
_cell_angle_gamma   90.00000000
_symmetry_Int_Tables_number   8
_chemical_formula_structural   TeRh
_chemical_formula_sum   'Te2 Rh2'
_cell_volume   96.94043495
_cell_formula_units_Z   2
loop_
 _symmetry_equiv_pos_site_id
 _symmetry_equiv_pos_as_xyz
  1  'x, y, z'
  2  'x, -y, z'
  3  'x+1/2, y+1/2, z'
  4  'x+1/2, -y+1/2, z'
loop_
 _atom_site_type_symbol
 _atom_site_label
 _atom_site_symmetry_multiplicity
 _atom_site_fract_x
 _atom_site_fract_y
 _atom_site_fract_z
 _atom_site_occupancy
  Te  Te0  2  0.26516590  0.50000000  0.28437108  1
  Rh  Rh1  2  0.49337174  0.50000000  0.96562892  1
