# generated using pymatgen
data_TeS3
_symmetry_space_group_name_H-M   Pm
_cell_length_a   5.88105689
_cell_length_b   4.09228896
_cell_length_c   6.23421121
_cell_angle_alpha   90.00000000
_cell_angle_beta   91.84036590
_cell_angle_gamma   90.00000000
_symmetry_Int_Tables_number   6
_chemical_formula_structural   TeS3
_chemical_formula_sum   'Te1 S3'
_cell_volume   149.96126998
_cell_formula_units_Z   1
loop_
 _symmetry_equiv_pos_site_id
 _symmetry_equiv_pos_as_xyz
  1  'x, y, z'
  2  'x, -y, z'
loop_
 _atom_site_type_symbol
 _atom_site_label
 _atom_site_symmetry_multiplicity
 _atom_site_fract_x
 _atom_site_fract_y
 _atom_site_fract_z
 _atom_site_occupancy
  Te  Te0  1  0.17475443  0.00000000  0.71544256  1
  S  S1  1  0.02082685  0.00000000  0.28188382  1
  S  S2  1  0.31235573  0.00000000  0.13029645  1
  S  S3  1  0.39426300  0.50000000  0.65457716  1
