# generated using pymatgen
data_TeSeCl2
_symmetry_space_group_name_H-M   Pmm2
_cell_length_a   3.88292518
_cell_length_b   5.66325604
_cell_length_c   7.24991216
_cell_angle_alpha   90.00000000
_cell_angle_beta   90.00000000
_cell_angle_gamma   90.00000000
_symmetry_Int_Tables_number   25
_chemical_formula_structural   TeSeCl2
_chemical_formula_sum   'Te1 Se1 Cl2'
_cell_volume   159.42556462
_cell_formula_units_Z   1
loop_
 _symmetry_equiv_pos_site_id
 _symmetry_equiv_pos_as_xyz
  1  'x, y, z'
  2  '-x, -y, z'
  3  '-x, y, z'
  4  'x, -y, z'
loop_
 _atom_site_type_symbol
 _atom_site_label
 _atom_site_symmetry_multiplicity
 _atom_site_fract_x
 _atom_site_fract_y
 _atom_site_fract_z
 _atom_site_occupancy
  Te  Te0  1  0.50000000  0.00000000  0.33116737  1
  Se  Se1  1  0.50000000  0.50000000  0.35774583  1
  Cl  Cl2  1  0.50000000  0.00000000  0.65632764  1
  Cl  Cl3  1  0.50000000  0.50000000  0.05475916  1
