# generated using pymatgen
data_TeSe2
_symmetry_space_group_name_H-M   P1
_cell_length_a   4.17769953
_cell_length_b   5.25320793
_cell_length_c   5.71944714
_cell_angle_alpha   115.46027985
_cell_angle_beta   90.36120262
_cell_angle_gamma   91.42010801
_symmetry_Int_Tables_number   1
_chemical_formula_structural   TeSe2
_chemical_formula_sum   'Te1 Se2'
_cell_volume   113.27589271
_cell_formula_units_Z   1
loop_
 _symmetry_equiv_pos_site_id
 _symmetry_equiv_pos_as_xyz
  1  'x, y, z'
loop_
 _atom_site_type_symbol
 _atom_site_label
 _atom_site_symmetry_multiplicity
 _atom_site_fract_x
 _atom_site_fract_y
 _atom_site_fract_z
 _atom_site_occupancy
  Te  Te0  1  0.95167724  0.40972775  0.65443142  1
  Se  Se1  1  0.33323455  0.16002825  0.84188658  1
  Se  Se2  1  0.97128821  0.91547733  0.01844867  1
