# generated using pymatgen
data_Ti2Cl5
_symmetry_space_group_name_H-M   P1
_cell_length_a   6.17271145
_cell_length_b   6.41964368
_cell_length_c   7.30096756
_cell_angle_alpha   82.06622328
_cell_angle_beta   72.31812637
_cell_angle_gamma   70.87430432
_symmetry_Int_Tables_number   1
_chemical_formula_structural   Ti2Cl5
_chemical_formula_sum   'Ti2 Cl5'
_cell_volume   260.19127317
_cell_formula_units_Z   1
loop_
 _symmetry_equiv_pos_site_id
 _symmetry_equiv_pos_as_xyz
  1  'x, y, z'
loop_
 _atom_site_type_symbol
 _atom_site_label
 _atom_site_symmetry_multiplicity
 _atom_site_fract_x
 _atom_site_fract_y
 _atom_site_fract_z
 _atom_site_occupancy
  Ti  Ti0  1  0.06680839  0.44219202  0.54628703  1
  Ti  Ti1  1  0.93403074  0.86127689  0.31386106  1
  Cl  Cl2  1  0.22815600  0.35704991  0.79248970  1
  Cl  Cl3  1  0.30533080  0.57888157  0.26646815  1
  Cl  Cl4  1  0.69231438  0.71970118  0.58910690  1
  Cl  Cl5  1  0.75613734  0.96775462  0.07710940  1
  Cl  Cl6  1  0.99722235  0.14504381  0.44337775  1
