# generated using pymatgen
data_TiBeBr2
_symmetry_space_group_name_H-M   'P 1'
_cell_length_a   3.36057647
_cell_length_b   3.30472951
_cell_length_c   8.93228826
_cell_angle_alpha   90.00005417
_cell_angle_beta   99.11454393
_cell_angle_gamma   90.00041464
_symmetry_Int_Tables_number   1
_chemical_formula_structural   TiBeBr2
_chemical_formula_sum   'Ti1 Be1 Br2'
_cell_volume   97.94763496
_cell_formula_units_Z   1
loop_
 _symmetry_equiv_pos_site_id
 _symmetry_equiv_pos_as_xyz
  1  'x, y, z'
loop_
 _atom_site_type_symbol
 _atom_site_label
 _atom_site_symmetry_multiplicity
 _atom_site_fract_x
 _atom_site_fract_y
 _atom_site_fract_z
 _atom_site_occupancy
  Ti  Ti0  1  0.02638805  0.50000008  0.56703610  1
  Be  Be1  1  0.46771765  0.00000013  0.42903386  1
  Br  Br2  1  0.11594307  0.00000008  0.78682451  1
  Br  Br3  1  0.39795123  0.49999972  0.26480553  1
