# generated using pymatgen
data_TiBrO
_symmetry_space_group_name_H-M   'P 1'
_cell_length_a   3.42023424
_cell_length_b   3.42023388
_cell_length_c   4.75140011
_cell_angle_alpha   89.99999727
_cell_angle_beta   90.00000098
_cell_angle_gamma   120.00001982
_symmetry_Int_Tables_number   1
_chemical_formula_structural   TiBrO
_chemical_formula_sum   'Ti1 Br1 O1'
_cell_volume   48.13531336
_cell_formula_units_Z   1
loop_
 _symmetry_equiv_pos_site_id
 _symmetry_equiv_pos_as_xyz
  1  'x, y, z'
loop_
 _atom_site_type_symbol
 _atom_site_label
 _atom_site_symmetry_multiplicity
 _atom_site_fract_x
 _atom_site_fract_y
 _atom_site_fract_z
 _atom_site_occupancy
  Ti  Ti0  1  -0.00000000  -0.00000001  -0.00000001  1
  Br  Br1  1  0.33333344  0.66666659  0.50000001  1
  O  O2  1  0.66666656  0.33333342  -0.00000000  1
