# generated using pymatgen
data_TiCoN2
_symmetry_space_group_name_H-M   'P 1'
_cell_length_a   3.01351794
_cell_length_b   3.01351794
_cell_length_c   5.03642430
_cell_angle_alpha   90.00000117
_cell_angle_beta   89.99999844
_cell_angle_gamma   120.00001592
_symmetry_Int_Tables_number   1
_chemical_formula_structural   TiCoN2
_chemical_formula_sum   'Ti1 Co1 N2'
_cell_volume   39.60959801
_cell_formula_units_Z   1
loop_
 _symmetry_equiv_pos_site_id
 _symmetry_equiv_pos_as_xyz
  1  'x, y, z'
loop_
 _atom_site_type_symbol
 _atom_site_label
 _atom_site_symmetry_multiplicity
 _atom_site_fract_x
 _atom_site_fract_y
 _atom_site_fract_z
 _atom_site_occupancy
  Ti  Ti0  1  0.33333328  0.66666669  -0.02088659  1
  Co  Co1  1  0.00000001  0.00000000  0.55091321  1
  N  N2  1  0.00000001  -0.00000002  0.16975732  1
  N  N3  1  0.66666670  0.33333332  0.69631606  1
