# generated using pymatgen
data_TiGa2Rh
_symmetry_space_group_name_H-M   Pmm2
_cell_length_a   2.92811008
_cell_length_b   4.23356145
_cell_length_c   4.95900991
_cell_angle_alpha   90.00000000
_cell_angle_beta   90.00000000
_cell_angle_gamma   90.00000000
_symmetry_Int_Tables_number   25
_chemical_formula_structural   TiGa2Rh
_chemical_formula_sum   'Ti1 Ga2 Rh1'
_cell_volume   61.47354306
_cell_formula_units_Z   1
loop_
 _symmetry_equiv_pos_site_id
 _symmetry_equiv_pos_as_xyz
  1  'x, y, z'
  2  '-x, -y, z'
  3  '-x, y, z'
  4  'x, -y, z'
loop_
 _atom_site_type_symbol
 _atom_site_label
 _atom_site_symmetry_multiplicity
 _atom_site_fract_x
 _atom_site_fract_y
 _atom_site_fract_z
 _atom_site_occupancy
  Ti  Ti0  1  0.50000000  0.00000000  0.24712336  1
  Ga  Ga1  1  0.00000000  0.50000000  0.07847910  1
  Ga  Ga2  1  0.50000000  0.50000000  0.60063091  1
  Rh  Rh3  1  0.00000000  0.00000000  0.74043329  1
