# generated using pymatgen
data_TiGeBr2
_symmetry_space_group_name_H-M   'P 1'
_cell_length_a   6.11319418
_cell_length_b   3.30426399
_cell_length_c   6.78118087
_cell_angle_alpha   89.99824585
_cell_angle_beta   101.09878855
_cell_angle_gamma   89.97413859
_symmetry_Int_Tables_number   1
_chemical_formula_structural   TiGeBr2
_chemical_formula_sum   'Ti1 Ge1 Br2'
_cell_volume   134.41525573
_cell_formula_units_Z   1
loop_
 _symmetry_equiv_pos_site_id
 _symmetry_equiv_pos_as_xyz
  1  'x, y, z'
loop_
 _atom_site_type_symbol
 _atom_site_label
 _atom_site_symmetry_multiplicity
 _atom_site_fract_x
 _atom_site_fract_y
 _atom_site_fract_z
 _atom_site_occupancy
  Ti  Ti0  1  0.54300005  0.50001738  0.03159362  1
  Ge  Ge1  1  -0.22609651  -0.00006785  -0.14356267  1
  Br  Br2  1  0.19811577  0.50002984  0.79598858  1
  Br  Br3  1  0.50698070  0.00002064  0.30968047  1
