# generated using pymatgen
data_TiPtO2
_symmetry_space_group_name_H-M   'P 1'
_cell_length_a   3.99581805
_cell_length_b   3.48406686
_cell_length_c   4.88574188
_cell_angle_alpha   89.99997647
_cell_angle_beta   110.74270994
_cell_angle_gamma   89.99848056
_symmetry_Int_Tables_number   1
_chemical_formula_structural   TiPtO2
_chemical_formula_sum   'Ti1 Pt1 O2'
_cell_volume   63.60892323
_cell_formula_units_Z   1
loop_
 _symmetry_equiv_pos_site_id
 _symmetry_equiv_pos_as_xyz
  1  'x, y, z'
loop_
 _atom_site_type_symbol
 _atom_site_label
 _atom_site_symmetry_multiplicity
 _atom_site_fract_x
 _atom_site_fract_y
 _atom_site_fract_z
 _atom_site_occupancy
  Ti  Ti0  1  0.41685177  0.49999985  0.06797819  1
  Pt  Pt1  1  -0.07305840  -0.00000427  0.33257542  1
  O  O2  1  0.38504176  -0.00000025  0.23965954  1
  O  O3  1  0.27686487  0.50000467  0.69648685  1
