# generated using pymatgen
data_TiSBr7
_symmetry_space_group_name_H-M   P1
_cell_length_a   6.83347496
_cell_length_b   7.78925281
_cell_length_c   9.05908638
_cell_angle_alpha   88.18118598
_cell_angle_beta   86.57879398
_cell_angle_gamma   88.50410681
_symmetry_Int_Tables_number   1
_chemical_formula_structural   TiSBr7
_chemical_formula_sum   'Ti1 S1 Br7'
_cell_volume   480.95047210
_cell_formula_units_Z   1
loop_
 _symmetry_equiv_pos_site_id
 _symmetry_equiv_pos_as_xyz
  1  'x, y, z'
loop_
 _atom_site_type_symbol
 _atom_site_label
 _atom_site_symmetry_multiplicity
 _atom_site_fract_x
 _atom_site_fract_y
 _atom_site_fract_z
 _atom_site_occupancy
  Ti  Ti0  1  0.19110324  0.01380800  0.87102893  1
  S  S1  1  0.97409137  0.81144156  0.95924356  1
  Br  Br2  1  0.01703243  0.12171367  0.67337820  1
  Br  Br3  1  0.21347265  0.76679688  0.12675367  1
  Br  Br4  1  0.22503072  0.24734757  0.02955403  1
  Br  Br5  1  0.34997238  0.81753288  0.38155055  1
  Br  Br6  1  0.48795792  0.89676146  0.76854558  1
  Br  Br7  1  0.57722464  0.34394207  0.21630545  1
  Br  Br8  1  0.80601463  0.45745591  0.36424002  1
