# generated using pymatgen
data_TiSeI
_symmetry_space_group_name_H-M   'P 1'
_cell_length_a   4.31733005
_cell_length_b   4.31733053
_cell_length_c   5.20812197
_cell_angle_alpha   90.00003002
_cell_angle_beta   89.99999751
_cell_angle_gamma   120.00005443
_symmetry_Int_Tables_number   1
_chemical_formula_structural   TiSeI
_chemical_formula_sum   'Ti1 Se1 I1'
_cell_volume   84.07020178
_cell_formula_units_Z   1
loop_
 _symmetry_equiv_pos_site_id
 _symmetry_equiv_pos_as_xyz
  1  'x, y, z'
loop_
 _atom_site_type_symbol
 _atom_site_label
 _atom_site_symmetry_multiplicity
 _atom_site_fract_x
 _atom_site_fract_y
 _atom_site_fract_z
 _atom_site_occupancy
  Ti  Ti0  1  0.00000021  0.00000012  0.49999995  1
  Se  Se1  1  0.33333333  0.66666668  0.50000003  1
  I  I2  1  0.66666645  0.33333320  0.00000002  1
