# generated using pymatgen
data_TiSnO2
_symmetry_space_group_name_H-M   'P 1'
_cell_length_a   4.77373906
_cell_length_b   3.10217496
_cell_length_c   5.11405582
_cell_angle_alpha   90.00000749
_cell_angle_beta   95.13036408
_cell_angle_gamma   89.99999532
_symmetry_Int_Tables_number   1
_chemical_formula_structural   TiSnO2
_chemical_formula_sum   'Ti1 Sn1 O2'
_cell_volume   75.43051440
_cell_formula_units_Z   1
loop_
 _symmetry_equiv_pos_site_id
 _symmetry_equiv_pos_as_xyz
  1  'x, y, z'
loop_
 _atom_site_type_symbol
 _atom_site_label
 _atom_site_symmetry_multiplicity
 _atom_site_fract_x
 _atom_site_fract_y
 _atom_site_fract_z
 _atom_site_occupancy
  Ti  Ti0  1  0.46969635  0.49999993  0.56727855  1
  Sn  Sn1  1  -0.10349004  -0.00000004  -0.01647478  1
  O  O2  1  0.16631892  0.50000001  0.73862899  1
  O  O3  1  0.51397477  0.00000010  0.37856724  1
