# generated using pymatgen
data_TiSnF2
_symmetry_space_group_name_H-M   'P 1'
_cell_length_a   3.02108108
_cell_length_b   4.02098904
_cell_length_c   6.00236964
_cell_angle_alpha   89.99999610
_cell_angle_beta   90.00002702
_cell_angle_gamma   89.99999990
_symmetry_Int_Tables_number   1
_chemical_formula_structural   TiSnF2
_chemical_formula_sum   'Ti1 Sn1 F2'
_cell_volume   72.91518923
_cell_formula_units_Z   1
loop_
 _symmetry_equiv_pos_site_id
 _symmetry_equiv_pos_as_xyz
  1  'x, y, z'
loop_
 _atom_site_type_symbol
 _atom_site_label
 _atom_site_symmetry_multiplicity
 _atom_site_fract_x
 _atom_site_fract_y
 _atom_site_fract_z
 _atom_site_occupancy
  Ti  Ti0  1  0.00000002  0.00000004  -0.06767215  1
  Sn  Sn1  1  0.49999984  0.49999996  0.63054333  1
  F  F2  1  0.00000003  0.00000007  0.23783359  1
  F  F3  1  0.00000012  0.49999993  0.00019522  1
