# generated using pymatgen
data_TiTeO
_symmetry_space_group_name_H-M   'P 1'
_cell_length_a   3.41764315
_cell_length_b   3.41764321
_cell_length_c   4.94489825
_cell_angle_alpha   89.99998692
_cell_angle_beta   89.99997929
_cell_angle_gamma   120.00002966
_symmetry_Int_Tables_number   1
_chemical_formula_structural   TiTeO
_chemical_formula_sum   'Ti1 Te1 O1'
_cell_volume   50.01972484
_cell_formula_units_Z   1
loop_
 _symmetry_equiv_pos_site_id
 _symmetry_equiv_pos_as_xyz
  1  'x, y, z'
loop_
 _atom_site_type_symbol
 _atom_site_label
 _atom_site_symmetry_multiplicity
 _atom_site_fract_x
 _atom_site_fract_y
 _atom_site_fract_z
 _atom_site_occupancy
  Ti  Ti0  1  -0.00000009  -0.00000004  -0.00000007  1
  Te  Te1  1  0.33333342  0.66666678  0.50000005  1
  O  O2  1  0.66666668  0.33333326  0.00000002  1
