# generated using pymatgen
data_Tl2Br3
_symmetry_space_group_name_H-M   Pm
_cell_length_a   4.61454618
_cell_length_b   5.33755627
_cell_length_c   8.16728478
_cell_angle_alpha   90.00000000
_cell_angle_beta   103.95698436
_cell_angle_gamma   90.00000000
_symmetry_Int_Tables_number   6
_chemical_formula_structural   Tl2Br3
_chemical_formula_sum   'Tl2 Br3'
_cell_volume   195.22455621
_cell_formula_units_Z   1
loop_
 _symmetry_equiv_pos_site_id
 _symmetry_equiv_pos_as_xyz
  1  'x, y, z'
  2  'x, -y, z'
loop_
 _atom_site_type_symbol
 _atom_site_label
 _atom_site_symmetry_multiplicity
 _atom_site_fract_x
 _atom_site_fract_y
 _atom_site_fract_z
 _atom_site_occupancy
  Tl  Tl0  1  0.39267071  0.50000000  0.29769494  1
  Tl  Tl1  1  0.98525365  0.00000000  0.84635663  1
  Br  Br2  1  0.18892541  0.50000000  0.87658423  1
  Br  Br3  1  0.46335558  0.00000000  0.58320580  1
  Br  Br4  1  0.85202799  0.00000000  0.18059174  1
