# generated using pymatgen
data_Tl2F3
_symmetry_space_group_name_H-M   Amm2
_cell_length_a   4.71442873
_cell_length_b   6.69029379
_cell_length_c   6.74152357
_cell_angle_alpha   90.00000000
_cell_angle_beta   90.00000000
_cell_angle_gamma   90.00000000
_symmetry_Int_Tables_number   38
_chemical_formula_structural   Tl2F3
_chemical_formula_sum   'Tl4 F6'
_cell_volume   212.63381019
_cell_formula_units_Z   2
loop_
 _symmetry_equiv_pos_site_id
 _symmetry_equiv_pos_as_xyz
  1  'x, y, z'
  2  '-x, -y, z'
  3  '-x, y, z'
  4  'x, -y, z'
  5  'x, y+1/2, z+1/2'
  6  '-x, -y+1/2, z+1/2'
  7  '-x, y+1/2, z+1/2'
  8  'x, -y+1/2, z+1/2'
loop_
 _atom_site_type_symbol
 _atom_site_label
 _atom_site_symmetry_multiplicity
 _atom_site_fract_x
 _atom_site_fract_y
 _atom_site_fract_z
 _atom_site_occupancy
  Tl  Tl0  2  0.00000000  0.00000000  0.43318292  1
  Tl  Tl1  2  0.50000000  0.00000000  0.99510922  1
  F  F2  4  0.50000000  0.22623353  0.27481645  1
  F  F3  2  0.00000000  0.00000000  0.03044694  1
