# generated using pymatgen
data_Tl2Se
_symmetry_space_group_name_H-M   C2/m
_cell_length_a   7.62450670
_cell_length_b   4.52634440
_cell_length_c   6.48080174
_cell_angle_alpha   90.00000000
_cell_angle_beta   100.39632680
_cell_angle_gamma   90.00000000
_symmetry_Int_Tables_number   12
_chemical_formula_structural   Tl2Se
_chemical_formula_sum   'Tl4 Se2'
_cell_volume   219.98806175
_cell_formula_units_Z   2
loop_
 _symmetry_equiv_pos_site_id
 _symmetry_equiv_pos_as_xyz
  1  'x, y, z'
  2  '-x, -y, -z'
  3  '-x, y, -z'
  4  'x, -y, z'
  5  'x+1/2, y+1/2, z'
  6  '-x+1/2, -y+1/2, -z'
  7  '-x+1/2, y+1/2, -z'
  8  'x+1/2, -y+1/2, z'
loop_
 _atom_site_type_symbol
 _atom_site_label
 _atom_site_symmetry_multiplicity
 _atom_site_fract_x
 _atom_site_fract_y
 _atom_site_fract_z
 _atom_site_occupancy
  Tl  Tl0  4  0.20697696  0.00000000  0.26225384  1
  Se  Se1  2  0.00000000  0.50000000  0.00000000  1
