# generated using pymatgen
data_Tl2TePd
_symmetry_space_group_name_H-M   Pm
_cell_length_a   4.04261311
_cell_length_b   3.81297047
_cell_length_c   7.57766373
_cell_angle_alpha   90.00000000
_cell_angle_beta   104.36101401
_cell_angle_gamma   90.00000000
_symmetry_Int_Tables_number   6
_chemical_formula_structural   Tl2TePd
_chemical_formula_sum   'Tl2 Te1 Pd1'
_cell_volume   113.15496934
_cell_formula_units_Z   1
loop_
 _symmetry_equiv_pos_site_id
 _symmetry_equiv_pos_as_xyz
  1  'x, y, z'
  2  'x, -y, z'
loop_
 _atom_site_type_symbol
 _atom_site_label
 _atom_site_symmetry_multiplicity
 _atom_site_fract_x
 _atom_site_fract_y
 _atom_site_fract_z
 _atom_site_occupancy
  Tl  Tl0  1  0.30288897  0.50000000  0.20959777  1
  Tl  Tl1  1  0.67073411  0.00000000  0.91150975  1
  Te  Te2  1  0.99663817  0.00000000  0.53353240  1
  Pd  Pd3  1  0.53213875  0.50000000  0.60016008  1
