# generated using pymatgen
data_Tl3F4
_symmetry_space_group_name_H-M   Pm
_cell_length_a   4.04796749
_cell_length_b   3.30476827
_cell_length_c   11.97797646
_cell_angle_alpha   90.00000000
_cell_angle_beta   90.12309006
_cell_angle_gamma   90.00000000
_symmetry_Int_Tables_number   6
_chemical_formula_structural   Tl3F4
_chemical_formula_sum   'Tl3 F4'
_cell_volume   160.23614250
_cell_formula_units_Z   1
loop_
 _symmetry_equiv_pos_site_id
 _symmetry_equiv_pos_as_xyz
  1  'x, y, z'
  2  'x, -y, z'
loop_
 _atom_site_type_symbol
 _atom_site_label
 _atom_site_symmetry_multiplicity
 _atom_site_fract_x
 _atom_site_fract_y
 _atom_site_fract_z
 _atom_site_occupancy
  Tl  Tl0  1  0.48380183  0.00000000  0.37416346  1
  Tl  Tl1  1  0.49916393  0.50000000  0.73345399  1
  Tl  Tl2  1  0.99956461  0.50000000  0.07161208  1
  F  F3  1  0.00886543  0.50000000  0.36905191  1
  F  F4  1  0.50005298  0.50000000  0.93377194  1
  F  F5  1  0.50301394  0.50000000  0.22061770  1
  F  F6  1  0.50553728  0.50000000  0.52102892  1
