# generated using pymatgen
data_TlAgF2
_symmetry_space_group_name_H-M   'P 1'
_cell_length_a   3.61065870
_cell_length_b   4.46656883
_cell_length_c   4.81770255
_cell_angle_alpha   89.99999677
_cell_angle_beta   90.00000095
_cell_angle_gamma   90.00000070
_symmetry_Int_Tables_number   1
_chemical_formula_structural   TlAgF2
_chemical_formula_sum   'Tl1 Ag1 F2'
_cell_volume   77.69632045
_cell_formula_units_Z   1
loop_
 _symmetry_equiv_pos_site_id
 _symmetry_equiv_pos_as_xyz
  1  'x, y, z'
loop_
 _atom_site_type_symbol
 _atom_site_label
 _atom_site_symmetry_multiplicity
 _atom_site_fract_x
 _atom_site_fract_y
 _atom_site_fract_z
 _atom_site_occupancy
  Tl  Tl0  1  0.50000001  0.50000000  0.46581050  1
  Ag  Ag1  1  -0.00000001  -0.00000001  -0.04161322  1
  F  F2  1  -0.00000000  0.00000000  0.45501038  1
  F  F3  1  0.00000000  0.50000000  -0.06290766  1
