# generated using pymatgen
data_TlAuF2
_symmetry_space_group_name_H-M   'P 1'
_cell_length_a   3.49428380
_cell_length_b   4.23816119
_cell_length_c   5.51557122
_cell_angle_alpha   89.99999906
_cell_angle_beta   89.99999899
_cell_angle_gamma   89.99999984
_symmetry_Int_Tables_number   1
_chemical_formula_structural   TlAuF2
_chemical_formula_sum   'Tl1 Au1 F2'
_cell_volume   81.68195839
_cell_formula_units_Z   1
loop_
 _symmetry_equiv_pos_site_id
 _symmetry_equiv_pos_as_xyz
  1  'x, y, z'
loop_
 _atom_site_type_symbol
 _atom_site_label
 _atom_site_symmetry_multiplicity
 _atom_site_fract_x
 _atom_site_fract_y
 _atom_site_fract_z
 _atom_site_occupancy
  Tl  Tl0  1  0.50000001  0.50000019  0.48939741  1
  Au  Au1  1  -0.00000006  0.00000028  -0.05515223  1
  F  F2  1  0.00000006  -0.00000024  0.41853415  1
  F  F3  1  -0.00000001  0.49999977  -0.03947934  1
