# generated using pymatgen
data_TlBr2
_symmetry_space_group_name_H-M   Pm
_cell_length_a   4.40344447
_cell_length_b   5.32366070
_cell_length_c   6.50606166
_cell_angle_alpha   90.00000000
_cell_angle_beta   105.05298667
_cell_angle_gamma   90.00000000
_symmetry_Int_Tables_number   6
_chemical_formula_structural   TlBr2
_chemical_formula_sum   'Tl1 Br2'
_cell_volume   147.28449465
_cell_formula_units_Z   1
loop_
 _symmetry_equiv_pos_site_id
 _symmetry_equiv_pos_as_xyz
  1  'x, y, z'
  2  'x, -y, z'
loop_
 _atom_site_type_symbol
 _atom_site_label
 _atom_site_symmetry_multiplicity
 _atom_site_fract_x
 _atom_site_fract_y
 _atom_site_fract_z
 _atom_site_occupancy
  Tl  Tl0  1  0.02639872  0.50000000  0.71693931  1
  Br  Br1  1  0.06230359  0.00000000  0.85291738  1
  Br  Br2  1  0.41129769  0.50000000  0.42580998  1
