# generated using pymatgen
data_TlFeBr2
_symmetry_space_group_name_H-M   'P 1'
_cell_length_a   5.68580167
_cell_length_b   3.86997918
_cell_length_c   6.97728872
_cell_angle_alpha   90.00566391
_cell_angle_beta   112.93617631
_cell_angle_gamma   89.99235898
_symmetry_Int_Tables_number   1
_chemical_formula_structural   TlFeBr2
_chemical_formula_sum   'Tl1 Fe1 Br2'
_cell_volume   141.38981964
_cell_formula_units_Z   1
loop_
 _symmetry_equiv_pos_site_id
 _symmetry_equiv_pos_as_xyz
  1  'x, y, z'
loop_
 _atom_site_type_symbol
 _atom_site_label
 _atom_site_symmetry_multiplicity
 _atom_site_fract_x
 _atom_site_fract_y
 _atom_site_fract_z
 _atom_site_occupancy
  Tl  Tl0  1  0.67473618  0.49997221  0.14185960  1
  Fe  Fe1  1  0.03184648  0.00007852  0.47903843  1
  Br  Br2  1  -0.05518965  0.49996257  0.66576240  1
  Br  Br3  1  0.23960699  -0.00001329  0.25103957  1
