# generated using pymatgen
data_TlHF2
_symmetry_space_group_name_H-M   'P 1'
_cell_length_a   3.96557741
_cell_length_b   3.54345489
_cell_length_c   5.27418351
_cell_angle_alpha   90.00004815
_cell_angle_beta   89.99999939
_cell_angle_gamma   90.00000016
_symmetry_Int_Tables_number   1
_chemical_formula_structural   TlHF2
_chemical_formula_sum   'Tl1 H1 F2'
_cell_volume   74.11200742
_cell_formula_units_Z   1
loop_
 _symmetry_equiv_pos_site_id
 _symmetry_equiv_pos_as_xyz
  1  'x, y, z'
loop_
 _atom_site_type_symbol
 _atom_site_label
 _atom_site_symmetry_multiplicity
 _atom_site_fract_x
 _atom_site_fract_y
 _atom_site_fract_z
 _atom_site_occupancy
  Tl  Tl0  1  0.50000000  0.50000006  0.57720013  1
  H  H1  1  -0.00000000  -0.00000097  0.08822364  1
  F  F2  1  -0.00000001  0.00000016  0.27027140  1
  F  F3  1  0.00000001  0.50000075  -0.13479518  1
