# generated using pymatgen
data_TlHgSe
_symmetry_space_group_name_H-M   'P 1'
_cell_length_a   3.46431256
_cell_length_b   3.46431079
_cell_length_c   9.00661122
_cell_angle_alpha   90.00055142
_cell_angle_beta   89.99945225
_cell_angle_gamma   120.00280706
_symmetry_Int_Tables_number   1
_chemical_formula_structural   TlHgSe
_chemical_formula_sum   'Tl1 Hg1 Se1'
_cell_volume   93.60815332
_cell_formula_units_Z   1
loop_
 _symmetry_equiv_pos_site_id
 _symmetry_equiv_pos_as_xyz
  1  'x, y, z'
loop_
 _atom_site_type_symbol
 _atom_site_label
 _atom_site_symmetry_multiplicity
 _atom_site_fract_x
 _atom_site_fract_y
 _atom_site_fract_z
 _atom_site_occupancy
  Tl  Tl0  1  0.33333418  0.66666583  0.62614761  1
  Hg  Hg1  1  -0.00000013  -0.00000007  0.00591737  1
  Se  Se2  1  0.66666596  0.33333424  0.36793501  1
