# generated using pymatgen
data_Tm2Sb2S7
_symmetry_space_group_name_H-M   Pm
_cell_length_a   5.60836343
_cell_length_b   3.73682630
_cell_length_c   13.57921636
_cell_angle_alpha   90.00000000
_cell_angle_beta   90.00695731
_cell_angle_gamma   90.00000000
_symmetry_Int_Tables_number   6
_chemical_formula_structural   Tm2Sb2S7
_chemical_formula_sum   'Tm2 Sb2 S7'
_cell_volume   284.58615250
_cell_formula_units_Z   1
loop_
 _symmetry_equiv_pos_site_id
 _symmetry_equiv_pos_as_xyz
  1  'x, y, z'
  2  'x, -y, z'
loop_
 _atom_site_type_symbol
 _atom_site_label
 _atom_site_symmetry_multiplicity
 _atom_site_fract_x
 _atom_site_fract_y
 _atom_site_fract_z
 _atom_site_occupancy
  Tm  Tm0  1  0.41929732  0.50000000  0.32083412  1
  Tm  Tm1  1  0.64460527  0.00000000  0.61713680  1
  Sb  Sb2  1  0.08110086  0.00000000  0.14111801  1
  Sb  Sb3  1  0.75252748  0.50000000  0.91621027  1
  S  S4  1  0.00135758  0.50000000  0.62649007  1
  S  S5  1  0.04453982  0.00000000  0.88811900  1
  S  S6  1  0.07034678  0.00000000  0.32631843  1
  S  S7  1  0.31223435  0.50000000  0.53730404  1
  S  S8  1  0.52156610  0.00000000  0.17231644  1
  S  S9  1  0.54809236  0.50000000  0.75678954  1
  S  S10  1  0.66483209  0.00000000  0.41786329  1
