# generated using pymatgen
data_TmAsS2
_symmetry_space_group_name_H-M   'P 1'
_cell_length_a   4.12923561
_cell_length_b   4.34363812
_cell_length_c   10.83174044
_cell_angle_alpha   88.12943295
_cell_angle_beta   89.94745299
_cell_angle_gamma   118.43020643
_symmetry_Int_Tables_number   1
_chemical_formula_structural   TmAsS2
_chemical_formula_sum   'Tm1 As1 S2'
_cell_volume   170.72583003
_cell_formula_units_Z   1
loop_
 _symmetry_equiv_pos_site_id
 _symmetry_equiv_pos_as_xyz
  1  'x, y, z'
loop_
 _atom_site_type_symbol
 _atom_site_label
 _atom_site_symmetry_multiplicity
 _atom_site_fract_x
 _atom_site_fract_y
 _atom_site_fract_z
 _atom_site_occupancy
  Tm  Tm0  1  0.00088097  0.00159056  0.66241746  1
  As  As1  1  0.65532946  0.31190014  -0.14062231  1
  S  S2  1  0.01374647  0.02658504  -0.09235720  1
  S  S3  1  0.33004310  0.65992426  0.57656206  1
