# generated using pymatgen
data_TmAsPb
_symmetry_space_group_name_H-M   'P 1'
_cell_length_a   4.06513729
_cell_length_b   4.06500636
_cell_length_c   6.39173995
_cell_angle_alpha   89.99958703
_cell_angle_beta   89.99920608
_cell_angle_gamma   119.99951693
_symmetry_Int_Tables_number   1
_chemical_formula_structural   TmAsPb
_chemical_formula_sum   'Tm1 As1 Pb1'
_cell_volume   91.47202429
_cell_formula_units_Z   1
loop_
 _symmetry_equiv_pos_site_id
 _symmetry_equiv_pos_as_xyz
  1  'x, y, z'
loop_
 _atom_site_type_symbol
 _atom_site_label
 _atom_site_symmetry_multiplicity
 _atom_site_fract_x
 _atom_site_fract_y
 _atom_site_fract_z
 _atom_site_occupancy
  Tm  Tm0  1  -0.00000080  -0.00000136  -0.01184901  1
  As  As1  1  0.33333482  0.66666880  0.20924604  1
  Pb  Pb2  1  -0.00000069  -0.00000077  0.50540297  1
