# generated using pymatgen
data_TmBiAs
_symmetry_space_group_name_H-M   'P 1'
_cell_length_a   4.07936390
_cell_length_b   4.07935666
_cell_length_c   6.54688004
_cell_angle_alpha   89.99996483
_cell_angle_beta   90.00004921
_cell_angle_gamma   120.00003719
_symmetry_Int_Tables_number   1
_chemical_formula_structural   TmBiAs
_chemical_formula_sum   'Tm1 Bi1 As1'
_cell_volume   94.35153676
_cell_formula_units_Z   1
loop_
 _symmetry_equiv_pos_site_id
 _symmetry_equiv_pos_as_xyz
  1  'x, y, z'
loop_
 _atom_site_type_symbol
 _atom_site_label
 _atom_site_symmetry_multiplicity
 _atom_site_fract_x
 _atom_site_fract_y
 _atom_site_fract_z
 _atom_site_occupancy
  Tm  Tm0  1  0.00000009  -0.00000018  -0.00254767  1
  Bi  Bi1  1  -0.00000026  -0.00000019  0.48186695  1
  As  As2  1  0.33333351  0.66666704  0.78398072  1
