# generated using pymatgen
data_TmCdTe2
_symmetry_space_group_name_H-M   'P 1'
_cell_length_a   4.35498916
_cell_length_b   4.35498920
_cell_length_c   8.37403675
_cell_angle_alpha   89.99997234
_cell_angle_beta   90.00002186
_cell_angle_gamma   120.00004822
_symmetry_Int_Tables_number   1
_chemical_formula_structural   TmCdTe2
_chemical_formula_sum   'Tm1 Cd1 Te2'
_cell_volume   137.54330114
_cell_formula_units_Z   1
loop_
 _symmetry_equiv_pos_site_id
 _symmetry_equiv_pos_as_xyz
  1  'x, y, z'
loop_
 _atom_site_type_symbol
 _atom_site_label
 _atom_site_symmetry_multiplicity
 _atom_site_fract_x
 _atom_site_fract_y
 _atom_site_fract_z
 _atom_site_occupancy
  Tm  Tm0  1  0.33333333  0.66666675  0.99202743  1
  Cd  Cd1  1  0.00000004  -0.00000026  0.43859071  1
  Te  Te2  1  0.00000001  0.00000015  0.79371979  1
  Te  Te3  1  0.66666662  0.33333336  0.21266207  1
