# generated using pymatgen
data_TmCdI2
_symmetry_space_group_name_H-M   'P 1'
_cell_length_a   4.49487997
_cell_length_b   4.07636756
_cell_length_c   9.19977219
_cell_angle_alpha   89.99898546
_cell_angle_beta   93.17237140
_cell_angle_gamma   90.00028356
_symmetry_Int_Tables_number   1
_chemical_formula_structural   TmCdI2
_chemical_formula_sum   'Tm1 Cd1 I2'
_cell_volume   168.30711299
_cell_formula_units_Z   1
loop_
 _symmetry_equiv_pos_site_id
 _symmetry_equiv_pos_as_xyz
  1  'x, y, z'
loop_
 _atom_site_type_symbol
 _atom_site_label
 _atom_site_symmetry_multiplicity
 _atom_site_fract_x
 _atom_site_fract_y
 _atom_site_fract_z
 _atom_site_occupancy
  Tm  Tm0  1  0.37718654  0.50001174  -0.04565681  1
  Cd  Cd1  1  -0.10833067  0.00000043  0.07182500  1
  I  I2  1  0.41276526  0.49997685  0.27031900  1
  I  I3  1  0.34537887  0.00001098  0.71121282  1
