# generated using pymatgen
data_TmCrP
_symmetry_space_group_name_H-M   'P 1'
_cell_length_a   3.59057082
_cell_length_b   3.59056910
_cell_length_c   5.19973534
_cell_angle_alpha   90.00015279
_cell_angle_beta   90.00001102
_cell_angle_gamma   119.99995799
_symmetry_Int_Tables_number   1
_chemical_formula_structural   TmCrP
_chemical_formula_sum   'Tm1 Cr1 P1'
_cell_volume   58.05489467
_cell_formula_units_Z   1
loop_
 _symmetry_equiv_pos_site_id
 _symmetry_equiv_pos_as_xyz
  1  'x, y, z'
loop_
 _atom_site_type_symbol
 _atom_site_label
 _atom_site_symmetry_multiplicity
 _atom_site_fract_x
 _atom_site_fract_y
 _atom_site_fract_z
 _atom_site_occupancy
  Tm  Tm0  1  0.33333108  0.66666204  0.52880525  1
  Cr  Cr1  1  0.66666736  0.33333483  -0.00627882  1
  P  P2  1  0.00000156  0.00000313  0.18077357  1
