# generated using pymatgen
data_TmCuF2
_symmetry_space_group_name_H-M   'P 1'
_cell_length_a   3.98458916
_cell_length_b   3.62358976
_cell_length_c   5.82490932
_cell_angle_alpha   90.00000389
_cell_angle_beta   109.12782907
_cell_angle_gamma   90.00000285
_symmetry_Int_Tables_number   1
_chemical_formula_structural   TmCuF2
_chemical_formula_sum   'Tm1 Cu1 F2'
_cell_volume   79.45970877
_cell_formula_units_Z   1
loop_
 _symmetry_equiv_pos_site_id
 _symmetry_equiv_pos_as_xyz
  1  'x, y, z'
loop_
 _atom_site_type_symbol
 _atom_site_label
 _atom_site_symmetry_multiplicity
 _atom_site_fract_x
 _atom_site_fract_y
 _atom_site_fract_z
 _atom_site_occupancy
  Tm  Tm0  1  0.61644771  0.49999999  0.10436703  1
  Cu  Cu1  1  -0.13354387  0.00000006  0.49784140  1
  F  F2  1  0.06029990  0.50000000  -0.01056537  1
  F  F3  1  0.51249626  -0.00000004  0.89505694  1
