# generated using pymatgen
data_TmFeBr2
_symmetry_space_group_name_H-M   'P 1'
_cell_length_a   3.99151961
_cell_length_b   3.68083890
_cell_length_c   7.84387261
_cell_angle_alpha   90.00042192
_cell_angle_beta   100.55051965
_cell_angle_gamma   89.99996513
_symmetry_Int_Tables_number   1
_chemical_formula_structural   TmFeBr2
_chemical_formula_sum   'Tm1 Fe1 Br2'
_cell_volume   113.29495865
_cell_formula_units_Z   1
loop_
 _symmetry_equiv_pos_site_id
 _symmetry_equiv_pos_as_xyz
  1  'x, y, z'
loop_
 _atom_site_type_symbol
 _atom_site_label
 _atom_site_symmetry_multiplicity
 _atom_site_fract_x
 _atom_site_fract_y
 _atom_site_fract_z
 _atom_site_occupancy
  Tm  Tm0  1  0.56823407  0.50000096  -0.03479022  1
  Fe  Fe1  1  0.09028412  0.00000209  0.03008437  1
  Br  Br2  1  0.15792570  0.50000350  0.24887575  1
  Br  Br3  1  0.13155612  -0.00000655  0.72913010  1
