# generated using pymatgen
data_TmGaP
_symmetry_space_group_name_H-M   'P 1'
_cell_length_a   4.13487794
_cell_length_b   4.24984625
_cell_length_c   3.72019849
_cell_angle_alpha   90.00000112
_cell_angle_beta   89.99999983
_cell_angle_gamma   90.00000013
_symmetry_Int_Tables_number   1
_chemical_formula_structural   TmGaP
_chemical_formula_sum   'Tm1 Ga1 P1'
_cell_volume   65.37354327
_cell_formula_units_Z   1
loop_
 _symmetry_equiv_pos_site_id
 _symmetry_equiv_pos_as_xyz
  1  'x, y, z'
loop_
 _atom_site_type_symbol
 _atom_site_label
 _atom_site_symmetry_multiplicity
 _atom_site_fract_x
 _atom_site_fract_y
 _atom_site_fract_z
 _atom_site_occupancy
  Tm  Tm0  1  0.49999999  0.50000008  0.50000002  1
  Ga  Ga1  1  0.00000012  -0.00000002  0.49999995  1
  P  P2  1  -0.00000011  0.49999994  0.00000003  1
