# generated using pymatgen
data_TmPdBr2
_symmetry_space_group_name_H-M   'P 1'
_cell_length_a   3.88987506
_cell_length_b   3.71815933
_cell_length_c   9.03887708
_cell_angle_alpha   89.97857271
_cell_angle_beta   99.99557045
_cell_angle_gamma   90.02717953
_symmetry_Int_Tables_number   1
_chemical_formula_structural   TmPdBr2
_chemical_formula_sum   'Tm1 Pd1 Br2'
_cell_volume   128.74650240
_cell_formula_units_Z   1
loop_
 _symmetry_equiv_pos_site_id
 _symmetry_equiv_pos_as_xyz
  1  'x, y, z'
loop_
 _atom_site_type_symbol
 _atom_site_label
 _atom_site_symmetry_multiplicity
 _atom_site_fract_x
 _atom_site_fract_y
 _atom_site_fract_z
 _atom_site_occupancy
  Tm  Tm0  1  0.38656916  0.49990967  -0.05990028  1
  Pd  Pd1  1  -0.05670623  -0.00009035  0.07035078  1
  Br  Br2  1  0.36562074  0.50007059  0.23987665  1
  Br  Br3  1  0.32251633  0.00011009  0.70697285  1
