# generated using pymatgen
data_TmPdCl2
_symmetry_space_group_name_H-M   'P 1'
_cell_length_a   3.99288434
_cell_length_b   3.51247425
_cell_length_c   8.21514030
_cell_angle_alpha   90.00134407
_cell_angle_beta   101.59601537
_cell_angle_gamma   89.99289061
_symmetry_Int_Tables_number   1
_chemical_formula_structural   TmPdCl2
_chemical_formula_sum   'Tm1 Pd1 Cl2'
_cell_volume   112.86489012
_cell_formula_units_Z   1
loop_
 _symmetry_equiv_pos_site_id
 _symmetry_equiv_pos_as_xyz
  1  'x, y, z'
loop_
 _atom_site_type_symbol
 _atom_site_label
 _atom_site_symmetry_multiplicity
 _atom_site_fract_x
 _atom_site_fract_y
 _atom_site_fract_z
 _atom_site_occupancy
  Tm  Tm0  1  0.37473262  0.49998906  -0.05767379  1
  Pd  Pd1  1  -0.05309911  0.00002111  0.09676451  1
  Cl  Cl2  1  0.40773876  0.49998626  0.25633553  1
  Cl  Cl3  1  0.28862773  0.00000358  0.70257375  1
