# generated using pymatgen
data_TmPPd
_symmetry_space_group_name_H-M   'P 1'
_cell_length_a   3.50909203
_cell_length_b   3.50893481
_cell_length_c   5.96688072
_cell_angle_alpha   90.00401837
_cell_angle_beta   90.00038280
_cell_angle_gamma   120.00080863
_symmetry_Int_Tables_number   1
_chemical_formula_structural   TmPPd
_chemical_formula_sum   'Tm1 P1 Pd1'
_cell_volume   63.62744816
_cell_formula_units_Z   1
loop_
 _symmetry_equiv_pos_site_id
 _symmetry_equiv_pos_as_xyz
  1  'x, y, z'
loop_
 _atom_site_type_symbol
 _atom_site_label
 _atom_site_symmetry_multiplicity
 _atom_site_fract_x
 _atom_site_fract_y
 _atom_site_fract_z
 _atom_site_occupancy
  Tm  Tm0  1  0.00000620  0.00001272  0.02340465  1
  P  P1  1  0.33334109  0.66667824  0.69664518  1
  Pd  Pd2  1  -0.00001396  -0.00002429  0.49205017  1
