# generated using pymatgen
data_TmRhCl2
_symmetry_space_group_name_H-M   'P 1'
_cell_length_a   3.73389979
_cell_length_b   3.92725475
_cell_length_c   7.37007202
_cell_angle_alpha   89.99801620
_cell_angle_beta   97.96549761
_cell_angle_gamma   90.00126560
_symmetry_Int_Tables_number   1
_chemical_formula_structural   TmRhCl2
_chemical_formula_sum   'Tm1 Rh1 Cl2'
_cell_volume   107.03182068
_cell_formula_units_Z   1
loop_
 _symmetry_equiv_pos_site_id
 _symmetry_equiv_pos_as_xyz
  1  'x, y, z'
loop_
 _atom_site_type_symbol
 _atom_site_label
 _atom_site_symmetry_multiplicity
 _atom_site_fract_x
 _atom_site_fract_y
 _atom_site_fract_z
 _atom_site_occupancy
  Tm  Tm0  1  0.57085739  0.50002648  -0.02061600  1
  Rh  Rh1  1  0.10972156  0.00005772  0.05528934  1
  Cl  Cl2  1  0.07143992  0.49995753  0.28101294  1
  Cl  Cl3  1  0.23601446  -0.00004172  0.74761371  1
