# generated using pymatgen
data_TmSeCl
_symmetry_space_group_name_H-M   'P 1'
_cell_length_a   4.49768652
_cell_length_b   4.49768662
_cell_length_c   3.92434544
_cell_angle_alpha   89.99999162
_cell_angle_beta   90.00000255
_cell_angle_gamma   119.99997657
_symmetry_Int_Tables_number   1
_chemical_formula_structural   TmSeCl
_chemical_formula_sum   'Tm1 Se1 Cl1'
_cell_volume   68.75057564
_cell_formula_units_Z   1
loop_
 _symmetry_equiv_pos_site_id
 _symmetry_equiv_pos_as_xyz
  1  'x, y, z'
loop_
 _atom_site_type_symbol
 _atom_site_label
 _atom_site_symmetry_multiplicity
 _atom_site_fract_x
 _atom_site_fract_y
 _atom_site_fract_z
 _atom_site_occupancy
  Tm  Tm0  1  -0.00000001  0.00000007  -0.00000010  1
  Se  Se1  1  0.33333326  0.66666661  0.49999998  1
  Cl  Cl2  1  0.66666675  0.33333332  0.00000012  1
