# generated using pymatgen
data_TmSeO
_symmetry_space_group_name_H-M   Pmm2
_cell_length_a   3.57847860
_cell_length_b   4.50648804
_cell_length_c   6.83325976
_cell_angle_alpha   90.00000000
_cell_angle_beta   90.00000000
_cell_angle_gamma   90.00000000
_symmetry_Int_Tables_number   25
_chemical_formula_structural   TmSeO
_chemical_formula_sum   'Tm1 Se1 O1'
_cell_volume   110.19568211
_cell_formula_units_Z   1
loop_
 _symmetry_equiv_pos_site_id
 _symmetry_equiv_pos_as_xyz
  1  'x, y, z'
  2  '-x, -y, z'
  3  '-x, y, z'
  4  'x, -y, z'
loop_
 _atom_site_type_symbol
 _atom_site_label
 _atom_site_symmetry_multiplicity
 _atom_site_fract_x
 _atom_site_fract_y
 _atom_site_fract_z
 _atom_site_occupancy
  Tm  Tm0  1  0.00000000  0.00000000  0.14834351  1
  Se  Se1  1  0.00000000  0.00000000  0.54214818  1
  O  O2  1  0.50000000  0.00000000  0.01620831  1
