# generated using pymatgen
data_TmSiPt
_symmetry_space_group_name_H-M   'P 1'
_cell_length_a   4.26114089
_cell_length_b   4.26114063
_cell_length_c   3.59181757
_cell_angle_alpha   89.99999727
_cell_angle_beta   90.00000000
_cell_angle_gamma   120.00000366
_symmetry_Int_Tables_number   1
_chemical_formula_structural   TmSiPt
_chemical_formula_sum   'Tm1 Si1 Pt1'
_cell_volume   56.48025486
_cell_formula_units_Z   1
loop_
 _symmetry_equiv_pos_site_id
 _symmetry_equiv_pos_as_xyz
  1  'x, y, z'
loop_
 _atom_site_type_symbol
 _atom_site_label
 _atom_site_symmetry_multiplicity
 _atom_site_fract_x
 _atom_site_fract_y
 _atom_site_fract_z
 _atom_site_occupancy
  Tm  Tm0  1  -0.00000008  -0.00000011  0.00000001  1
  Si  Si1  1  0.66666664  0.33333330  0.50000004  1
  Pt  Pt2  1  0.33333344  0.66666680  0.49999995  1
