# generated using pymatgen
data_TmTeW
_symmetry_space_group_name_H-M   Cm
_cell_length_a   9.06987632
_cell_length_b   3.41205240
_cell_length_c   5.35898396
_cell_angle_alpha   90.00000000
_cell_angle_beta   119.73203229
_cell_angle_gamma   90.00000000
_symmetry_Int_Tables_number   8
_chemical_formula_structural   TmTeW
_chemical_formula_sum   'Tm2 Te2 W2'
_cell_volume   144.01128160
_cell_formula_units_Z   2
loop_
 _symmetry_equiv_pos_site_id
 _symmetry_equiv_pos_as_xyz
  1  'x, y, z'
  2  'x, -y, z'
  3  'x+1/2, y+1/2, z'
  4  'x+1/2, -y+1/2, z'
loop_
 _atom_site_type_symbol
 _atom_site_label
 _atom_site_symmetry_multiplicity
 _atom_site_fract_x
 _atom_site_fract_y
 _atom_site_fract_z
 _atom_site_occupancy
  Tm  Tm0  2  0.12645187  0.50000000  0.63404574  1
  Te  Te1  2  0.05165996  0.00000000  0.09262858  1
  W  W2  2  0.31855763  0.50000000  0.27332568  1
