# generated using pymatgen
data_TmTiP
_symmetry_space_group_name_H-M   'P 1'
_cell_length_a   3.59905766
_cell_length_b   3.59907207
_cell_length_c   5.63693279
_cell_angle_alpha   90.00049145
_cell_angle_beta   90.00000732
_cell_angle_gamma   119.99987675
_symmetry_Int_Tables_number   1
_chemical_formula_structural   TmTiP
_chemical_formula_sum   'Tm1 Ti1 P1'
_cell_volume   63.23439616
_cell_formula_units_Z   1
loop_
 _symmetry_equiv_pos_site_id
 _symmetry_equiv_pos_as_xyz
  1  'x, y, z'
loop_
 _atom_site_type_symbol
 _atom_site_label
 _atom_site_symmetry_multiplicity
 _atom_site_fract_x
 _atom_site_fract_y
 _atom_site_fract_z
 _atom_site_occupancy
  Tm  Tm0  1  0.33333365  0.66666710  0.52446910  1
  Ti  Ti1  1  0.66666666  0.33333349  -0.01183709  1
  P  P2  1  -0.00000030  -0.00000059  0.21066800  1
