# generated using pymatgen
data_TmVI2
_symmetry_space_group_name_H-M   'P 1'
_cell_length_a   4.35947960
_cell_length_b   3.79499688
_cell_length_c   9.02523334
_cell_angle_alpha   90.00056447
_cell_angle_beta   102.84688007
_cell_angle_gamma   89.99902138
_symmetry_Int_Tables_number   1
_chemical_formula_structural   TmVI2
_chemical_formula_sum   'Tm1 V1 I2'
_cell_volume   145.57766989
_cell_formula_units_Z   1
loop_
 _symmetry_equiv_pos_site_id
 _symmetry_equiv_pos_as_xyz
  1  'x, y, z'
loop_
 _atom_site_type_symbol
 _atom_site_label
 _atom_site_symmetry_multiplicity
 _atom_site_fract_x
 _atom_site_fract_y
 _atom_site_fract_z
 _atom_site_occupancy
  Tm  Tm0  1  -0.07104537  0.50000293  0.53578826  1
  V  V1  1  0.39536546  0.00000117  0.46731202  1
  I  I2  1  0.33049787  0.49999240  0.24237152  1
  I  I3  1  0.37618204  0.00000351  0.76782820  1
