# generated using pymatgen
data_TmZrAs
_symmetry_space_group_name_H-M   'P 1'
_cell_length_a   3.42716585
_cell_length_b   3.42713543
_cell_length_c   6.31002533
_cell_angle_alpha   89.99840386
_cell_angle_beta   90.00063468
_cell_angle_gamma   90.00030394
_symmetry_Int_Tables_number   1
_chemical_formula_structural   TmZrAs
_chemical_formula_sum   'Tm1 Zr1 As1'
_cell_volume   74.11352861
_cell_formula_units_Z   1
loop_
 _symmetry_equiv_pos_site_id
 _symmetry_equiv_pos_as_xyz
  1  'x, y, z'
loop_
 _atom_site_type_symbol
 _atom_site_label
 _atom_site_symmetry_multiplicity
 _atom_site_fract_x
 _atom_site_fract_y
 _atom_site_fract_z
 _atom_site_occupancy
  Tm  Tm0  1  0.49999870  0.50000251  -0.00318167  1
  Zr  Zr1  1  0.50000058  0.49999670  0.49302897  1
  As  As2  1  0.00000072  0.00000079  0.26945271  1
