# generated using pymatgen
data_VCl4
_symmetry_space_group_name_H-M   P1
_cell_length_a   6.13288871
_cell_length_b   6.54013831
_cell_length_c   7.01824927
_cell_angle_alpha   76.03936689
_cell_angle_beta   64.37857236
_cell_angle_gamma   65.98663496
_symmetry_Int_Tables_number   1
_chemical_formula_structural   VCl4
_chemical_formula_sum   'V1 Cl4'
_cell_volume   231.12421450
_cell_formula_units_Z   1
loop_
 _symmetry_equiv_pos_site_id
 _symmetry_equiv_pos_as_xyz
  1  'x, y, z'
loop_
 _atom_site_type_symbol
 _atom_site_label
 _atom_site_symmetry_multiplicity
 _atom_site_fract_x
 _atom_site_fract_y
 _atom_site_fract_z
 _atom_site_occupancy
  V  V0  1  0.06622362  0.22571484  0.26363039  1
  Cl  Cl1  1  0.08760156  0.45988349  0.41651207  1
  Cl  Cl2  1  0.42901873  0.95534527  0.17023641  1
  Cl  Cl3  1  0.76879495  0.09610707  0.47950524  1
  Cl  Cl4  1  0.97486114  0.39174933  0.99031589  1
