# generated using pymatgen
data_VFeBr2
_symmetry_space_group_name_H-M   'P 1'
_cell_length_a   3.69045168
_cell_length_b   3.43778356
_cell_length_c   7.31100343
_cell_angle_alpha   89.15086704
_cell_angle_beta   87.21363652
_cell_angle_gamma   92.35522165
_symmetry_Int_Tables_number   1
_chemical_formula_structural   VFeBr2
_chemical_formula_sum   'V1 Fe1 Br2'
_cell_volume   92.55344514
_cell_formula_units_Z   1
loop_
 _symmetry_equiv_pos_site_id
 _symmetry_equiv_pos_as_xyz
  1  'x, y, z'
loop_
 _atom_site_type_symbol
 _atom_site_label
 _atom_site_symmetry_multiplicity
 _atom_site_fract_x
 _atom_site_fract_y
 _atom_site_fract_z
 _atom_site_occupancy
  V  V0  1  0.58196410  0.55522540  0.00999555  1
  Fe  Fe1  1  -0.03941758  -0.04817588  0.06707670  1
  Br  Br2  1  0.17144638  0.49339663  0.28789466  1
  Br  Br3  1  0.28170710  -0.00044615  0.78173309  1
