# generated using pymatgen
data_WCl2
_symmetry_space_group_name_H-M   Cm
_cell_length_a   8.91540346
_cell_length_b   3.00421508
_cell_length_c   10.51035906
_cell_angle_alpha   90.00000000
_cell_angle_beta   94.70881906
_cell_angle_gamma   90.00000000
_symmetry_Int_Tables_number   8
_chemical_formula_structural   WCl2
_chemical_formula_sum   'W2 Cl4'
_cell_volume   280.55709091
_cell_formula_units_Z   2
loop_
 _symmetry_equiv_pos_site_id
 _symmetry_equiv_pos_as_xyz
  1  'x, y, z'
  2  'x, -y, z'
  3  'x+1/2, y+1/2, z'
  4  'x+1/2, -y+1/2, z'
loop_
 _atom_site_type_symbol
 _atom_site_label
 _atom_site_symmetry_multiplicity
 _atom_site_fract_x
 _atom_site_fract_y
 _atom_site_fract_z
 _atom_site_occupancy
  W  W0  2  0.34695861  0.00000000  0.90343173  1
  Cl  Cl1  2  0.16738631  0.00000000  0.74126704  1
  Cl  Cl2  2  0.49204118  0.50000000  0.04510124  1
