# generated using pymatgen
data_YSbAs
_symmetry_space_group_name_H-M   'P 1'
_cell_length_a   4.09688221
_cell_length_b   4.67831898
_cell_length_c   4.28776478
_cell_angle_alpha   89.99999965
_cell_angle_beta   90.00000055
_cell_angle_gamma   90.00000005
_symmetry_Int_Tables_number   1
_chemical_formula_structural   YSbAs
_chemical_formula_sum   'Y1 Sb1 As1'
_cell_volume   82.18153714
_cell_formula_units_Z   1
loop_
 _symmetry_equiv_pos_site_id
 _symmetry_equiv_pos_as_xyz
  1  'x, y, z'
loop_
 _atom_site_type_symbol
 _atom_site_label
 _atom_site_symmetry_multiplicity
 _atom_site_fract_x
 _atom_site_fract_y
 _atom_site_fract_z
 _atom_site_occupancy
  Y  Y0  1  -0.00000002  0.49999999  -0.00000000  1
  Sb  Sb1  1  0.00000003  -0.00000000  0.50000000  1
  As  As2  1  0.49999999  0.50000001  0.50000000  1
