# generated using pymatgen
data_ZnCdCl
_symmetry_space_group_name_H-M   'P 1'
_cell_length_a   3.32576439
_cell_length_b   3.79018815
_cell_length_c   5.57479367
_cell_angle_alpha   89.99618002
_cell_angle_beta   89.99810079
_cell_angle_gamma   90.05595074
_symmetry_Int_Tables_number   1
_chemical_formula_structural   ZnCdCl
_chemical_formula_sum   'Zn1 Cd1 Cl1'
_cell_volume   70.27176111
_cell_formula_units_Z   1
loop_
 _symmetry_equiv_pos_site_id
 _symmetry_equiv_pos_as_xyz
  1  'x, y, z'
loop_
 _atom_site_type_symbol
 _atom_site_label
 _atom_site_symmetry_multiplicity
 _atom_site_fract_x
 _atom_site_fract_y
 _atom_site_fract_z
 _atom_site_occupancy
  Zn  Zn0  1  0.49999947  0.50000912  0.62089332  1
  Cd  Cd1  1  -0.00000003  -0.00001665  -0.14428487  1
  Cl  Cl2  1  0.00000056  0.50000753  0.27669155  1
