# generated using pymatgen
data_ZnCl2
_symmetry_space_group_name_H-M   Pmm2
_cell_length_a   2.46326587
_cell_length_b   5.89097637
_cell_length_c   5.83275633
_cell_angle_alpha   90.00000000
_cell_angle_beta   90.00000000
_cell_angle_gamma   90.00000000
_symmetry_Int_Tables_number   25
_chemical_formula_structural   ZnCl2
_chemical_formula_sum   'Zn1 Cl2'
_cell_volume   84.63936636
_cell_formula_units_Z   1
loop_
 _symmetry_equiv_pos_site_id
 _symmetry_equiv_pos_as_xyz
  1  'x, y, z'
  2  '-x, -y, z'
  3  '-x, y, z'
  4  'x, -y, z'
loop_
 _atom_site_type_symbol
 _atom_site_label
 _atom_site_symmetry_multiplicity
 _atom_site_fract_x
 _atom_site_fract_y
 _atom_site_fract_z
 _atom_site_occupancy
  Zn  Zn0  1  0.50000000  0.00000000  0.45499238  1
  Cl  Cl1  1  0.50000000  0.00000000  0.94103356  1
  Cl  Cl2  1  0.50000000  0.50000000  0.44407406  1
