# generated using pymatgen
data_ZnMoS2
_symmetry_space_group_name_H-M   'P 1'
_cell_length_a   3.72096734
_cell_length_b   3.82659179
_cell_length_c   11.24212339
_cell_angle_alpha   89.98012048
_cell_angle_beta   90.91842345
_cell_angle_gamma   120.95511861
_symmetry_Int_Tables_number   1
_chemical_formula_structural   ZnMoS2
_chemical_formula_sum   'Zn1 Mo1 S2'
_cell_volume   137.24987089
_cell_formula_units_Z   1
loop_
 _symmetry_equiv_pos_site_id
 _symmetry_equiv_pos_as_xyz
  1  'x, y, z'
loop_
 _atom_site_type_symbol
 _atom_site_label
 _atom_site_symmetry_multiplicity
 _atom_site_fract_x
 _atom_site_fract_y
 _atom_site_fract_z
 _atom_site_occupancy
  Zn  Zn0  1  0.32801034  0.66387467  0.45873998  1
  Mo  Mo1  1  0.00853635  0.00443612  0.01148278  1
  S  S2  1  0.00546908  0.00240421  0.43951337  1
  S  S3  1  0.32465089  0.66261833  0.07836387  1
