# generated using pymatgen
data_ZnRh2
_symmetry_space_group_name_H-M   Cm
_cell_length_a   7.40747981
_cell_length_b   4.51390084
_cell_length_c   2.74392512
_cell_angle_alpha   90.00000000
_cell_angle_beta   106.33539289
_cell_angle_gamma   90.00000000
_symmetry_Int_Tables_number   8
_chemical_formula_structural   ZnRh2
_chemical_formula_sum   'Zn2 Rh4'
_cell_volume   88.04391562
_cell_formula_units_Z   2
loop_
 _symmetry_equiv_pos_site_id
 _symmetry_equiv_pos_as_xyz
  1  'x, y, z'
  2  'x, -y, z'
  3  'x+1/2, y+1/2, z'
  4  'x+1/2, -y+1/2, z'
loop_
 _atom_site_type_symbol
 _atom_site_label
 _atom_site_symmetry_multiplicity
 _atom_site_fract_x
 _atom_site_fract_y
 _atom_site_fract_z
 _atom_site_occupancy
  Zn  Zn0  2  0.09676336  0.50000000  0.15306788  1
  Rh  Rh1  2  0.27477145  0.00000000  0.42739133  1
  Rh  Rh2  2  0.46178551  0.50000000  0.66324078  1
