# generated using pymatgen
data_ZrBrO
_symmetry_space_group_name_H-M   Pmmm
_cell_length_a   3.67266884
_cell_length_b   3.88476387
_cell_length_c   5.77556469
_cell_angle_alpha   90.00000000
_cell_angle_beta   90.00000000
_cell_angle_gamma   90.00000000
_symmetry_Int_Tables_number   47
_chemical_formula_structural   ZrBrO
_chemical_formula_sum   'Zr1 Br1 O1'
_cell_volume   82.40258757
_cell_formula_units_Z   1
loop_
 _symmetry_equiv_pos_site_id
 _symmetry_equiv_pos_as_xyz
  1  'x, y, z'
  2  '-x, -y, -z'
  3  '-x, -y, z'
  4  'x, y, -z'
  5  'x, -y, -z'
  6  '-x, y, z'
  7  '-x, y, -z'
  8  'x, -y, z'
loop_
 _atom_site_type_symbol
 _atom_site_label
 _atom_site_symmetry_multiplicity
 _atom_site_fract_x
 _atom_site_fract_y
 _atom_site_fract_z
 _atom_site_occupancy
  Zr  Zr0  1  0.50000000  0.00000000  0.50000000  1
  Br  Br1  1  0.50000000  0.50000000  0.00000000  1
  O  O2  1  0.50000000  0.50000000  0.50000000  1
