# generated using pymatgen
data_ZrTiSe4
_symmetry_space_group_name_H-M   'P 1'
_cell_length_a   3.67800029
_cell_length_b   3.67799665
_cell_length_c   18.75566093
_cell_angle_alpha   87.00081246
_cell_angle_beta   85.66693261
_cell_angle_gamma   60.04289998
_symmetry_Int_Tables_number   1
_chemical_formula_structural   ZrTiSe4
_chemical_formula_sum   'Zr1 Ti1 Se4'
_cell_volume   219.16367597
_cell_formula_units_Z   1
loop_
 _symmetry_equiv_pos_site_id
 _symmetry_equiv_pos_as_xyz
  1  'x, y, z'
loop_
 _atom_site_type_symbol
 _atom_site_label
 _atom_site_symmetry_multiplicity
 _atom_site_fract_x
 _atom_site_fract_y
 _atom_site_fract_z
 _atom_site_occupancy
  Zr  Zr0  1  0.44699477  0.48350729  0.17322187  1
  Ti  Ti1  1  0.55470933  0.51644446  0.82700931  1
  Se  Se2  1  0.08719776  0.14111659  0.26093337  1
  Se  Se3  1  0.19593951  0.17509382  0.90659051  1
  Se  Se4  1  0.81058047  0.82574384  0.08559694  1
  Se  Se5  1  0.91437816  0.85809399  0.74704799  1
