# generated using pymatgen
data_ZrVSe2
_symmetry_space_group_name_H-M   'P 1'
_cell_length_a   4.08077935
_cell_length_b   4.08510553
_cell_length_c   9.12643026
_cell_angle_alpha   89.91543092
_cell_angle_beta   90.13746710
_cell_angle_gamma   120.06590254
_symmetry_Int_Tables_number   1
_chemical_formula_structural   ZrVSe2
_chemical_formula_sum   'Zr1 V1 Se2'
_cell_volume   131.67032376
_cell_formula_units_Z   1
loop_
 _symmetry_equiv_pos_site_id
 _symmetry_equiv_pos_as_xyz
  1  'x, y, z'
loop_
 _atom_site_type_symbol
 _atom_site_label
 _atom_site_symmetry_multiplicity
 _atom_site_fract_x
 _atom_site_fract_y
 _atom_site_fract_z
 _atom_site_occupancy
  Zr  Zr0  1  0.66618112  0.33338168  0.65889265  1
  V  V1  1  0.33378898  0.66659961  -0.15708146  1
  Se  Se2  1  0.33315632  0.66679392  0.54084177  1
  Se  Se3  1  0.66687358  0.33322479  -0.05355296  1
