# generated using pymatgen
data_Ac3In
_symmetry_space_group_name_H-M   'P 1'
_cell_length_a   9.15099430
_cell_length_b   8.58175182
_cell_length_c   6.15468836
_cell_angle_alpha   79.12941742
_cell_angle_beta   86.66062927
_cell_angle_gamma   125.22082520
_symmetry_Int_Tables_number   1
_chemical_formula_structural   Ac3In
_chemical_formula_sum   'Ac6 In2'
_cell_volume   379.27423673
_cell_formula_units_Z   2
loop_
 _symmetry_equiv_pos_site_id
 _symmetry_equiv_pos_as_xyz
  1  'x, y, z'
loop_
 _atom_site_type_symbol
 _atom_site_label
 _atom_site_symmetry_multiplicity
 _atom_site_fract_x
 _atom_site_fract_y
 _atom_site_fract_z
 _atom_site_occupancy
  Ac  Ac1  1  0.22302434  0.17840827  0.32100698  1.0
  Ac  Ac2  1  0.47112674  0.82029426  0.28558737  1.0
  Ac  Ac3  1  0.24595806  0.83583140  0.32904351  1.0
  Ac  Ac4  1  0.90071511  0.70485997  0.79284275  1.0
  Ac  Ac5  1  0.19735247  0.00000000  0.73114246  1.0
  Ac  Ac6  1  0.86457580  0.21046802  0.81198865  1.0
  In  In1  1  0.25933093  0.65105438  0.65714586  1.0
  In  In2  1  0.82310927  0.28966528  0.62875903  1.0
