# generated using pymatgen
data_AcEuZn2
_symmetry_space_group_name_H-M   'P 1'
_cell_length_a   5.02385855
_cell_length_b   5.36624622
_cell_length_c   5.57199478
_cell_angle_alpha   54.41954803
_cell_angle_beta   62.02868652
_cell_angle_gamma   62.63675690
_symmetry_Int_Tables_number   1
_chemical_formula_structural   AcEuZn2
_chemical_formula_sum   'Ac1 Eu1 Zn2'
_cell_volume   104.18987140
_cell_formula_units_Z   1
loop_
 _symmetry_equiv_pos_site_id
 _symmetry_equiv_pos_as_xyz
  1  'x, y, z'
loop_
 _atom_site_type_symbol
 _atom_site_label
 _atom_site_symmetry_multiplicity
 _atom_site_fract_x
 _atom_site_fract_y
 _atom_site_fract_z
 _atom_site_occupancy
  Ac  Ac1  1  0.49473685  0.47177160  0.47772974  1.0
  Eu  Eu1  1  0.00000000  0.00000000  0.00000000  1.0
  Zn  Zn1  1  0.44872579  0.32163817  0.18350920  1.0
  Zn  Zn2  1  0.78689194  0.64892405  0.81989431  1.0
