# generated using pymatgen
data_Al2CuOs
_symmetry_space_group_name_H-M   'P 1'
_cell_length_a   1.90993917
_cell_length_b   3.65919065
_cell_length_c   2.33397865
_cell_angle_alpha   53.35905075
_cell_angle_beta   72.73860168
_cell_angle_gamma   52.23196793
_symmetry_Int_Tables_number   1
_chemical_formula_structural   Al2CuOs
_chemical_formula_sum   'Al2 Cu1 Os1'
_cell_volume   10.28534176
_cell_formula_units_Z   1
loop_
 _symmetry_equiv_pos_site_id
 _symmetry_equiv_pos_as_xyz
  1  'x, y, z'
loop_
 _atom_site_type_symbol
 _atom_site_label
 _atom_site_symmetry_multiplicity
 _atom_site_fract_x
 _atom_site_fract_y
 _atom_site_fract_z
 _atom_site_occupancy
  Al  Al1  1  0.00000000  0.00000000  0.00000000  1.0
  Al  Al2  1  0.37508410  0.62684059  0.61475432  1.0
  Cu  Cu1  1  0.13068050  0.19883513  0.15013295  1.0
  Os  Os1  1  0.80071199  0.79000390  0.78250194  1.0
