# generated using pymatgen
data_Al2ZnS4
_symmetry_space_group_name_H-M   'P 1'
_cell_length_a   5.24511480
_cell_length_b   6.07165623
_cell_length_c   5.21707487
_cell_angle_alpha   131.74374390
_cell_angle_beta   119.48493958
_cell_angle_gamma   83.81558990
_symmetry_Int_Tables_number   1
_chemical_formula_structural   Al2ZnS4
_chemical_formula_sum   'Al2 Zn1 S4'
_cell_volume   101.53328728
_cell_formula_units_Z   1
loop_
 _symmetry_equiv_pos_site_id
 _symmetry_equiv_pos_as_xyz
  1  'x, y, z'
loop_
 _atom_site_type_symbol
 _atom_site_label
 _atom_site_symmetry_multiplicity
 _atom_site_fract_x
 _atom_site_fract_y
 _atom_site_fract_z
 _atom_site_occupancy
  Al  Al1  1  0.44544175  0.33704123  0.00000000  1.0
  Al  Al2  1  0.36056960  0.70828867  0.41347358  1.0
  Zn  Zn1  1  0.00000000  0.00000000  0.00000000  1.0
  S  S1  1  0.00000000  0.15437946  0.51226795  1.0
  S  S2  1  0.65114510  0.61049926  0.50518483  1.0
  S  S3  1  0.28261042  0.83936578  0.90749347  1.0
  S  S4  1  0.79290289  0.16463369  0.12050322  1.0
