# generated using pymatgen
data_AlPS4
_symmetry_space_group_name_H-M   'P 1'
_cell_length_a   5.73049498
_cell_length_b   7.29259729
_cell_length_c   6.70246935
_cell_angle_alpha   97.85670471
_cell_angle_beta   98.18660736
_cell_angle_gamma   111.03212738
_symmetry_Int_Tables_number   1
_chemical_formula_structural   AlPS4
_chemical_formula_sum   'Al2 P2 S8'
_cell_volume   253.37017078
_cell_formula_units_Z   2
loop_
 _symmetry_equiv_pos_site_id
 _symmetry_equiv_pos_as_xyz
  1  'x, y, z'
loop_
 _atom_site_type_symbol
 _atom_site_label
 _atom_site_symmetry_multiplicity
 _atom_site_fract_x
 _atom_site_fract_y
 _atom_site_fract_z
 _atom_site_occupancy
  Al  Al1  1  0.62387931  0.57658476  0.80017459  1.0
  Al  Al2  1  0.45002437  0.38087553  0.16447476  1.0
  P  P1  1  0.00000000  0.43335357  0.74389493  1.0
  P  P2  1  0.28591692  0.00000000  0.33026367  1.0
  S  S1  1  0.00000000  0.28344965  0.50165731  1.0
  S  S2  1  0.89515889  0.73872483  0.51270485  1.0
  S  S3  1  0.21375558  0.73119271  0.91643441  1.0
  S  S4  1  0.82886386  0.33423078  0.85758483  1.0
  S  S5  1  0.38082156  0.85380769  0.33540416  1.0
  S  S6  1  0.81646341  0.26608312  0.29197022  1.0
  S  S7  1  0.82111299  0.77797920  0.12105224  1.0
  S  S8  1  0.17545250  0.36914733  0.10918990  1.0
