# generated using pymatgen
data_AlPt3
_symmetry_space_group_name_H-M   'P 1'
_cell_length_a   2.38095784
_cell_length_b   2.47228980
_cell_length_c   2.00496411
_cell_angle_alpha   89.00888062
_cell_angle_beta   89.12560272
_cell_angle_gamma   96.65395355
_symmetry_Int_Tables_number   1
_chemical_formula_structural   AlPt3
_chemical_formula_sum   'Al1 Pt3'
_cell_volume   11.71903373
_cell_formula_units_Z   1
loop_
 _symmetry_equiv_pos_site_id
 _symmetry_equiv_pos_as_xyz
  1  'x, y, z'
loop_
 _atom_site_type_symbol
 _atom_site_label
 _atom_site_symmetry_multiplicity
 _atom_site_fract_x
 _atom_site_fract_y
 _atom_site_fract_z
 _atom_site_occupancy
  Al  Al1  1  0.00000000  0.00000000  0.00000000  1.0
  Pt  Pt1  1  0.00000000  0.70319271  0.54698420  1.0
  Pt  Pt2  1  0.48226041  0.43590587  0.00000000  1.0
  Pt  Pt3  1  0.46016002  0.00000000  0.54600012  1.0
