# generated using pymatgen
data_B2H
_symmetry_space_group_name_H-M   'P 1'
_cell_length_a   3.30881190
_cell_length_b   2.58947611
_cell_length_c   4.84799862
_cell_angle_alpha   96.23133087
_cell_angle_beta   95.69721222
_cell_angle_gamma   134.59352112
_symmetry_Int_Tables_number   1
_chemical_formula_structural   B2H
_chemical_formula_sum   'B2 H1'
_cell_volume   28.48700650
_cell_formula_units_Z   1
loop_
 _symmetry_equiv_pos_site_id
 _symmetry_equiv_pos_as_xyz
  1  'x, y, z'
loop_
 _atom_site_type_symbol
 _atom_site_label
 _atom_site_symmetry_multiplicity
 _atom_site_fract_x
 _atom_site_fract_y
 _atom_site_fract_z
 _atom_site_occupancy
  B  B1  1  0.52958220  0.82158613  0.24891517  1.0
  B  B2  1  0.53199011  0.38276020  0.63603634  1.0
  H  H1  1  0.00000000  0.00000000  0.00000000  1.0
