# generated using pymatgen
data_Ba2CdSnO6
_symmetry_space_group_name_H-M   'P 1'
_cell_length_a   6.48167706
_cell_length_b   4.52482653
_cell_length_c   5.41666651
_cell_angle_alpha   62.86262894
_cell_angle_beta   61.30972672
_cell_angle_gamma   58.31304550
_symmetry_Int_Tables_number   1
_chemical_formula_structural   Ba2CdSnO6
_chemical_formula_sum   'Ba2 Cd1 Sn1 O6'
_cell_volume   114.07232467
_cell_formula_units_Z   1
loop_
 _symmetry_equiv_pos_site_id
 _symmetry_equiv_pos_as_xyz
  1  'x, y, z'
loop_
 _atom_site_type_symbol
 _atom_site_label
 _atom_site_symmetry_multiplicity
 _atom_site_fract_x
 _atom_site_fract_y
 _atom_site_fract_z
 _atom_site_occupancy
  Ba  Ba1  1  0.21684584  0.23946792  0.20959544  1.0
  Ba  Ba2  1  0.71225631  0.81529510  0.78483343  1.0
  Cd  Cd1  1  0.50639516  0.46410516  0.58369458  1.0
  Sn  Sn1  1  0.00000000  0.00000000  0.00000000  1.0
  O  O1  1  0.71547204  0.18688044  0.13464373  1.0
  O  O2  1  0.79485053  0.39923069  0.82226384  1.0
  O  O3  1  0.82316387  0.56243372  0.28907889  1.0
  O  O4  1  0.18231872  0.78288889  0.74266881  1.0
  O  O5  1  0.17893255  0.92100263  0.43068486  1.0
  O  O6  1  0.12950920  0.24790125  0.66776168  1.0
