# generated using pymatgen
data_Ba2DyPaO6
_symmetry_space_group_name_H-M   'P 1'
_cell_length_a   8.49675941
_cell_length_b   6.59032726
_cell_length_c   7.00782871
_cell_angle_alpha   68.20732880
_cell_angle_beta   69.70232391
_cell_angle_gamma   70.00821686
_symmetry_Int_Tables_number   1
_chemical_formula_structural   Ba2DyPaO6
_chemical_formula_sum   'Ba2 Dy1 Pa1 O6'
_cell_volume   331.35358353
_cell_formula_units_Z   1
loop_
 _symmetry_equiv_pos_site_id
 _symmetry_equiv_pos_as_xyz
  1  'x, y, z'
loop_
 _atom_site_type_symbol
 _atom_site_label
 _atom_site_symmetry_multiplicity
 _atom_site_fract_x
 _atom_site_fract_y
 _atom_site_fract_z
 _atom_site_occupancy
  Ba  Ba1  1  0.79196286  0.72652477  0.65983194  1.0
  Ba  Ba2  1  0.14660656  0.27559102  0.14270136  1.0
  Dy  Dy1  1  0.50232381  0.60769516  0.51387215  1.0
  Pa  Pa1  1  0.00000000  0.00000000  0.00000000  1.0
  O  O1  1  0.72416407  0.69284034  0.15789381  1.0
  O  O2  1  0.20078906  0.30403286  0.66832453  1.0
  O  O3  1  0.76992053  0.18330455  0.69363534  1.0
  O  O4  1  0.19145074  0.74222016  0.29435414  1.0
  O  O5  1  0.18196526  0.66619349  0.63569725  1.0
  O  O6  1  0.80344158  0.17119946  0.28578079  1.0
