# generated using pymatgen
data_Ba2ErTaO6
_symmetry_space_group_name_H-M   'P 1'
_cell_length_a   5.99749806
_cell_length_b   6.01068425
_cell_length_c   6.00687412
_cell_angle_alpha   59.86326303
_cell_angle_beta   60.00814012
_cell_angle_gamma   60.03001576
_symmetry_Int_Tables_number   1
_chemical_formula_structural   Ba2ErTaO6
_chemical_formula_sum   'Ba2 Er1 Ta1 O6'
_cell_volume   153.00359756
_cell_formula_units_Z   1
loop_
 _symmetry_equiv_pos_site_id
 _symmetry_equiv_pos_as_xyz
  1  'x, y, z'
loop_
 _atom_site_type_symbol
 _atom_site_label
 _atom_site_symmetry_multiplicity
 _atom_site_fract_x
 _atom_site_fract_y
 _atom_site_fract_z
 _atom_site_occupancy
  Ba  Ba0  1  0.27388989  0.24054387  0.22504996  1.0
  Ba  Ba1  1  0.77264542  0.74062464  0.72522804  1.0
  Er  Er2  1  0.52380754  0.49061853  0.47449433  1.0
  Ta  Ta3  1  0.02387143  0.99060624  0.97449936  1.0
  O  O4  1  0.77831034  0.23101376  0.20783835  1.0
  O  O5  1  0.27018616  0.75103354  0.74043565  1.0
  O  O6  1  0.27402486  0.77936008  0.19758930  1.0
  O  O7  1  0.77352237  0.20165311  0.75122945  1.0
  O  O8  1  0.23847270  0.24978138  0.72011344  1.0
  O  O9  1  0.80879189  0.73206617  0.22849467  1.0
