# generated using pymatgen
data_Ba2ErTaO6
_symmetry_space_group_name_H-M   'P 1'
_cell_length_a   10.25650031
_cell_length_b   12.67406602
_cell_length_c   8.17192187
_cell_angle_alpha   64.40574633
_cell_angle_beta   73.05957549
_cell_angle_gamma   54.92195750
_symmetry_Int_Tables_number   1
_chemical_formula_structural   Ba2ErTaO6
_chemical_formula_sum   'Ba2 Er1 Ta1 O6'
_cell_volume   782.69694301
_cell_formula_units_Z   1
loop_
 _symmetry_equiv_pos_site_id
 _symmetry_equiv_pos_as_xyz
  1  'x, y, z'
loop_
 _atom_site_type_symbol
 _atom_site_label
 _atom_site_symmetry_multiplicity
 _atom_site_fract_x
 _atom_site_fract_y
 _atom_site_fract_z
 _atom_site_occupancy
  Ba  Ba0  1  0.23993604  0.35807122  0.13811196  1.0
  Ba  Ba1  1  0.69229449  0.93090282  0.55303775  1.0
  Er  Er2  1  0.51938014  0.51704143  0.83024156  1.0
  Ta  Ta3  1  0.08290078  0.94758975  0.54717465  1.0
  O  O4  1  0.77059126  0.22180117  0.29061437  1.0
  O  O5  1  0.45207145  0.78089704  0.73985464  1.0
  O  O6  1  0.25680702  0.63198872  0.44375121  1.0
  O  O7  1  0.73224633  0.14403318  0.76549779  1.0
  O  O8  1  0.99682901  0.08085143  0.41434493  1.0
  O  O9  1  0.48031126  0.13119206  0.86925969  1.0
