# generated using pymatgen
data_Ba2HfO4
_symmetry_space_group_name_H-M   'P 1'
_cell_length_a   4.14876716
_cell_length_b   4.13633302
_cell_length_c   7.24742466
_cell_angle_alpha   75.19308189
_cell_angle_beta   103.70502497
_cell_angle_gamma   89.17797405
_symmetry_Int_Tables_number   1
_chemical_formula_structural   Ba2HfO4
_chemical_formula_sum   'Ba2 Hf1 O4'
_cell_volume   116.44530128
_cell_formula_units_Z   1
loop_
 _symmetry_equiv_pos_site_id
 _symmetry_equiv_pos_as_xyz
  1  'x, y, z'
loop_
 _atom_site_type_symbol
 _atom_site_label
 _atom_site_symmetry_multiplicity
 _atom_site_fract_x
 _atom_site_fract_y
 _atom_site_fract_z
 _atom_site_occupancy
  Ba  Ba0  1  0.98271476  0.32954415  0.27777178  1.0
  Ba  Ba1  1  0.70032512  0.61671733  0.68480330  1.0
  Hf  Hf2  1  0.34117101  0.97257131  0.98153477  1.0
  O  O3  1  0.84082143  0.97192196  0.98183989  1.0
  O  O4  1  0.34085628  0.47211516  0.98171891  1.0
  O  O5  1  0.20238972  0.11738024  0.67006640  1.0
  O  O6  1  0.47729522  0.82669130  0.29272724  1.0
