# generated using pymatgen
data_Ba2HfO4
_symmetry_space_group_name_H-M   'P 1'
_cell_length_a   4.19587729
_cell_length_b   4.19351075
_cell_length_c   7.40253495
_cell_angle_alpha   73.60922315
_cell_angle_beta   73.69310449
_cell_angle_gamma   90.02308180
_symmetry_Int_Tables_number   1
_chemical_formula_structural   Ba2HfO4
_chemical_formula_sum   'Ba2 Hf1 O4'
_cell_volume   119.48125159
_cell_formula_units_Z   1
loop_
 _symmetry_equiv_pos_site_id
 _symmetry_equiv_pos_as_xyz
  1  'x, y, z'
loop_
 _atom_site_type_symbol
 _atom_site_label
 _atom_site_symmetry_multiplicity
 _atom_site_fract_x
 _atom_site_fract_y
 _atom_site_fract_z
 _atom_site_occupancy
  Ba  Ba0  1  0.40042764  0.42083132  0.31131886  1.0
  Ba  Ba1  1  0.69499988  0.71538979  0.72217579  1.0
  Hf  Hf2  1  0.04794430  0.06783601  0.01689616  1.0
  O  O3  1  0.54807682  0.06724637  0.01702960  1.0
  O  O4  1  0.04726198  0.56771637  0.01698129  1.0
  O  O5  1  0.20298492  0.22332490  0.70627999  1.0
  O  O6  1  0.89535358  0.91269949  0.32756495  1.0
