# generated using pymatgen
data_Ba2HfO4
_symmetry_space_group_name_H-M   'P 1'
_cell_length_a   4.21385034
_cell_length_b   4.20473105
_cell_length_c   7.26694783
_cell_angle_alpha   73.42309336
_cell_angle_beta   73.56669070
_cell_angle_gamma   90.02940617
_symmetry_Int_Tables_number   1
_chemical_formula_structural   Ba2HfO4
_chemical_formula_sum   'Ba2 Hf1 O4'
_cell_volume   117.90106262
_cell_formula_units_Z   1
loop_
 _symmetry_equiv_pos_site_id
 _symmetry_equiv_pos_as_xyz
  1  'x, y, z'
loop_
 _atom_site_type_symbol
 _atom_site_label
 _atom_site_symmetry_multiplicity
 _atom_site_fract_x
 _atom_site_fract_y
 _atom_site_fract_z
 _atom_site_occupancy
  Ba  Ba0  1  0.21566407  0.03447313  0.75101640  1.0
  Ba  Ba1  1  0.92287748  0.74087008  0.33923381  1.0
  Hf  Hf2  1  0.57034625  0.38737758  0.04516018  1.0
  O  O3  1  0.56934511  0.88654551  0.04535132  1.0
  O  O4  1  0.07109777  0.38779574  0.04521999  1.0
  O  O5  1  0.41940914  0.22954688  0.35864998  1.0
  O  O6  1  0.72743229  0.54045776  0.73132360  1.0
