# generated using pymatgen
data_Ba2HfO4
_symmetry_space_group_name_H-M   'P 1'
_cell_length_a   4.20603219
_cell_length_b   4.19954453
_cell_length_c   7.30987923
_cell_angle_alpha   73.80715780
_cell_angle_beta   73.60364221
_cell_angle_gamma   89.95506325
_symmetry_Int_Tables_number   1
_chemical_formula_structural   Ba2HfO4
_chemical_formula_sum   'Ba2 Hf1 O4'
_cell_volume   118.52613811
_cell_formula_units_Z   1
loop_
 _symmetry_equiv_pos_site_id
 _symmetry_equiv_pos_as_xyz
  1  'x, y, z'
loop_
 _atom_site_type_symbol
 _atom_site_label
 _atom_site_symmetry_multiplicity
 _atom_site_fract_x
 _atom_site_fract_y
 _atom_site_fract_z
 _atom_site_occupancy
  Ba  Ba0  1  0.36380669  0.31460404  0.22380567  1.0
  Ba  Ba1  1  0.65658427  0.60655930  0.63514818  1.0
  Hf  Hf2  1  0.01043764  0.96059192  0.92948604  1.0
  O  O3  1  0.51042923  0.96059218  0.92944654  1.0
  O  O4  1  0.01100233  0.46065532  0.92934539  1.0
  O  O5  1  0.16388495  0.11348091  0.61700553  1.0
  O  O6  1  0.85572281  0.80778104  0.24182170  1.0
