# generated using pymatgen
data_Ba2I2O
_symmetry_space_group_name_H-M   'P 1'
_cell_length_a   6.65505684
_cell_length_b   9.51810588
_cell_length_c   8.65733742
_cell_angle_alpha   115.88673390
_cell_angle_beta   109.51841207
_cell_angle_gamma   98.00566866
_symmetry_Int_Tables_number   1
_chemical_formula_structural   Ba2I2O
_chemical_formula_sum   'Ba4 I4 O2'
_cell_volume   437.93015873
_cell_formula_units_Z   2
loop_
 _symmetry_equiv_pos_site_id
 _symmetry_equiv_pos_as_xyz
  1  'x, y, z'
loop_
 _atom_site_type_symbol
 _atom_site_label
 _atom_site_symmetry_multiplicity
 _atom_site_fract_x
 _atom_site_fract_y
 _atom_site_fract_z
 _atom_site_occupancy
  Ba  Ba0  1  0.26750686  0.21419472  0.65534681  1.0
  Ba  Ba1  1  0.54272426  0.55513400  0.17963404  1.0
  Ba  Ba2  1  0.86648124  0.20930067  0.07929603  1.0
  Ba  Ba3  1  0.04291092  0.64219413  0.79615215  1.0
  I  I4  1  0.81452934  0.85559143  0.11107721  1.0
  I  I5  1  0.85406316  0.94374365  0.65680899  1.0
  I  I6  1  0.17455098  0.61872164  0.42418787  1.0
  I  I7  1  0.57608964  0.28779114  0.40136393  1.0
  O  O8  1  0.22893064  0.47239549  0.87024779  1.0
  O  O9  1  0.57117507  0.29452539  0.95644811  1.0
