# generated using pymatgen
data_Ba2MgSbO6
_symmetry_space_group_name_H-M   'P 1'
_cell_length_a   12.89407731
_cell_length_b   8.65062979
_cell_length_c   6.84611768
_cell_angle_alpha   68.74859402
_cell_angle_beta   81.45884217
_cell_angle_gamma   80.16233809
_symmetry_Int_Tables_number   1
_chemical_formula_structural   Ba2MgSbO6
_chemical_formula_sum   'Ba2 Mg1 Sb1 O6'
_cell_volume   698.11184412
_cell_formula_units_Z   1
loop_
 _symmetry_equiv_pos_site_id
 _symmetry_equiv_pos_as_xyz
  1  'x, y, z'
loop_
 _atom_site_type_symbol
 _atom_site_label
 _atom_site_symmetry_multiplicity
 _atom_site_fract_x
 _atom_site_fract_y
 _atom_site_fract_z
 _atom_site_occupancy
  Ba  Ba0  1  0.75453948  0.22654908  0.07875386  1.0
  Ba  Ba1  1  0.96366321  0.44048777  0.22246429  1.0
  Mg  Mg2  1  0.43674446  0.62376672  0.45881010  1.0
  Sb  Sb3  1  0.85444551  0.37525295  0.91673450  1.0
  O  O4  1  0.73889751  0.69011959  0.12442106  1.0
  O  O5  1  0.60414885  0.25429557  0.03111747  1.0
  O  O6  1  0.59358332  0.16027278  0.11221244  1.0
  O  O7  1  0.28685178  0.29638718  0.56409410  1.0
  O  O8  1  0.62705226  0.69667142  0.28494721  1.0
  O  O9  1  0.15614533  0.72994071  0.61894667  1.0
