# generated using pymatgen
data_Ba2PaHO6
_symmetry_space_group_name_H-M   'P 1'
_cell_length_a   7.31243610
_cell_length_b   4.56670046
_cell_length_c   5.52246666
_cell_angle_alpha   53.54671478
_cell_angle_beta   46.67705536
_cell_angle_gamma   61.72337723
_symmetry_Int_Tables_number   1
_chemical_formula_structural   Ba2PaHO6
_chemical_formula_sum   'Ba2 Pa1 H1 O6'
_cell_volume   107.22211154
_cell_formula_units_Z   1
loop_
 _symmetry_equiv_pos_site_id
 _symmetry_equiv_pos_as_xyz
  1  'x, y, z'
loop_
 _atom_site_type_symbol
 _atom_site_label
 _atom_site_symmetry_multiplicity
 _atom_site_fract_x
 _atom_site_fract_y
 _atom_site_fract_z
 _atom_site_occupancy
  Ba  Ba1  1  0.67328268  0.78950751  0.78012192  1.0
  Ba  Ba2  1  0.34359866  0.24257442  0.31025150  1.0
  Pa  Pa1  1  0.00000000  0.00000000  0.00000000  1.0
  H  H1  1  0.47783464  0.52583784  0.41837367  1.0
  O  O1  1  0.76762730  0.64822996  0.10355803  1.0
  O  O2  1  0.11741364  0.28040808  0.53976542  1.0
  O  O3  1  0.84837687  0.15440989  0.83483952  1.0
  O  O4  1  0.27377117  0.78568721  0.13708472  1.0
  O  O5  1  0.14046481  0.79944801  0.51052433  1.0
  O  O6  1  0.90150470  0.14840560  0.32086188  1.0
