# generated using pymatgen
data_Ba2TbPaO6
_symmetry_space_group_name_H-M   'P 1'
_cell_length_a   8.74151764
_cell_length_b   6.83634723
_cell_length_c   7.25527528
_cell_angle_alpha   67.08046408
_cell_angle_beta   50.62451376
_cell_angle_gamma   56.72530212
_symmetry_Int_Tables_number   1
_chemical_formula_structural   Ba2TbPaO6
_chemical_formula_sum   'Ba2 Tb1 Pa1 O6'
_cell_volume   279.63245020
_cell_formula_units_Z   1
loop_
 _symmetry_equiv_pos_site_id
 _symmetry_equiv_pos_as_xyz
  1  'x, y, z'
loop_
 _atom_site_type_symbol
 _atom_site_label
 _atom_site_symmetry_multiplicity
 _atom_site_fract_x
 _atom_site_fract_y
 _atom_site_fract_z
 _atom_site_occupancy
  Ba  Ba0  1  0.68378241  0.79917807  0.71913173  1.0
  Ba  Ba1  1  0.46475415  0.10346349  0.26443030  1.0
  Tb  Tb2  1  0.94045789  0.41880480  0.45204617  1.0
  Pa  Pa3  1  0.11486735  0.98894838  0.98029517  1.0
  O  O4  1  0.71471111  0.78214454  0.23030106  1.0
  O  O5  1  0.22052908  0.30475987  0.83514531  1.0
  O  O6  1  0.74359810  0.23474364  0.80521092  1.0
  O  O7  1  0.11269598  0.79784892  0.45750294  1.0
  O  O8  1  0.30770562  0.59745212  0.78441373  1.0
  O  O9  1  0.41710661  0.38415724  0.22422208  1.0
