# generated using pymatgen
data_Ba2TmReO6
_symmetry_space_group_name_H-M   'P 1'
_cell_length_a   4.81078100
_cell_length_b   5.41110945
_cell_length_c   4.89725924
_cell_angle_alpha   62.14425278
_cell_angle_beta   68.67672729
_cell_angle_gamma   67.27769470
_symmetry_Int_Tables_number   1
_chemical_formula_structural   Ba2TmReO6
_chemical_formula_sum   'Ba2 Tm1 Re1 O6'
_cell_volume   101.30828423
_cell_formula_units_Z   1
loop_
 _symmetry_equiv_pos_site_id
 _symmetry_equiv_pos_as_xyz
  1  'x, y, z'
loop_
 _atom_site_type_symbol
 _atom_site_label
 _atom_site_symmetry_multiplicity
 _atom_site_fract_x
 _atom_site_fract_y
 _atom_site_fract_z
 _atom_site_occupancy
  Ba  Ba1  1  0.81521320  0.71387202  0.70842636  1.0
  Ba  Ba2  1  0.24079436  0.15103889  0.26462585  1.0
  Tm  Tm1  1  0.60598773  0.61264104  0.44277358  1.0
  Re  Re1  1  0.00000000  0.00000000  0.00000000  1.0
  O  O1  1  0.75876468  0.82417315  0.27661294  1.0
  O  O2  1  0.85325730  0.26366320  0.65452117  1.0
  O  O3  1  0.24534363  0.82515204  0.31665546  1.0
  O  O4  1  0.75181592  0.18082625  0.17718259  1.0
  O  O5  1  0.13787317  0.44276819  0.76172149  1.0
  O  O6  1  0.31211308  0.82709676  0.63348055  1.0
