# generated using pymatgen
data_Ba2TbPaO6
_symmetry_space_group_name_H-M   'P 1'
_cell_length_a   6.29992504
_cell_length_b   6.27896848
_cell_length_c   5.96954811
_cell_angle_alpha   60.40338349
_cell_angle_beta   60.67439016
_cell_angle_gamma   60.15372258
_symmetry_Int_Tables_number   1
_chemical_formula_structural   Ba2TbPaO6
_chemical_formula_sum   'Ba2 Tb1 Pa1 O6'
_cell_volume   168.51758185
_cell_formula_units_Z   1
loop_
 _symmetry_equiv_pos_site_id
 _symmetry_equiv_pos_as_xyz
  1  'x, y, z'
loop_
 _atom_site_type_symbol
 _atom_site_label
 _atom_site_symmetry_multiplicity
 _atom_site_fract_x
 _atom_site_fract_y
 _atom_site_fract_z
 _atom_site_occupancy
  Ba  Ba0  1  0.73030625  0.75649930  0.73000791  1.0
  Ba  Ba1  1  0.24867316  0.24150960  0.22570654  1.0
  Tb  Tb2  1  0.48966230  0.49897102  0.47786671  1.0
  Pa  Pa3  1  0.98965521  0.99906706  0.97781031  1.0
  O  O4  1  0.70114209  0.79754642  0.22204119  1.0
  O  O5  1  0.27878909  0.19996762  0.73365080  1.0
  O  O6  1  0.71434125  0.31375749  0.76812443  1.0
  O  O7  1  0.26484315  0.68477789  0.18770400  1.0
  O  O8  1  0.16401705  0.78984850  0.69522178  1.0
  O  O9  1  0.81554506  0.20852578  0.26012018  1.0
