# generated using pymatgen
data_Ba2TbReO6
_symmetry_space_group_name_H-M   'P 1'
_cell_length_a   6.90557384
_cell_length_b   6.35851622
_cell_length_c   4.68485689
_cell_angle_alpha   64.35298920
_cell_angle_beta   68.43213654
_cell_angle_gamma   61.09206390
_symmetry_Int_Tables_number   1
_chemical_formula_structural   Ba2TbReO6
_chemical_formula_sum   'Ba2 Tb1 Re1 O6'
_cell_volume   159.03233222
_cell_formula_units_Z   1
loop_
 _symmetry_equiv_pos_site_id
 _symmetry_equiv_pos_as_xyz
  1  'x, y, z'
loop_
 _atom_site_type_symbol
 _atom_site_label
 _atom_site_symmetry_multiplicity
 _atom_site_fract_x
 _atom_site_fract_y
 _atom_site_fract_z
 _atom_site_occupancy
  Ba  Ba1  1  0.25604665  0.54343039  0.15600160  1.0
  Ba  Ba2  1  0.66567451  0.80853939  0.82113683  1.0
  Tb  Tb1  1  0.53946799  0.36725551  0.50814247  1.0
  Re  Re1  1  0.00000000  0.00000000  0.00000000  1.0
  O  O1  1  0.66874725  0.22488102  0.84428793  1.0
  O  O2  1  0.20222920  0.52775204  0.53706628  1.0
  O  O3  1  0.86312139  0.74007839  0.34185567  1.0
  O  O4  1  0.71183348  0.55938202  0.31510907  1.0
  O  O5  1  0.39867109  0.73846287  0.32706988  1.0
  O  O6  1  0.28476909  0.85724556  0.72678125  1.0
