# generated using pymatgen
data_Ba2UCdO6
_symmetry_space_group_name_H-M   'P 1'
_cell_length_a   8.15970039
_cell_length_b   4.19920015
_cell_length_c   5.62928057
_cell_angle_alpha   58.58980942
_cell_angle_beta   73.85036469
_cell_angle_gamma   65.68921661
_symmetry_Int_Tables_number   1
_chemical_formula_structural   Ba2UCdO6
_chemical_formula_sum   'Ba2 U1 Cd1 O6'
_cell_volume   149.51786549
_cell_formula_units_Z   1
loop_
 _symmetry_equiv_pos_site_id
 _symmetry_equiv_pos_as_xyz
  1  'x, y, z'
loop_
 _atom_site_type_symbol
 _atom_site_label
 _atom_site_symmetry_multiplicity
 _atom_site_fract_x
 _atom_site_fract_y
 _atom_site_fract_z
 _atom_site_occupancy
  Ba  Ba1  1  0.22416705  0.23738405  0.12625223  1.0
  Ba  Ba2  1  0.75981712  0.81997269  0.74561977  1.0
  U  U1  1  0.00000000  0.00000000  0.00000000  1.0
  Cd  Cd1  1  0.43157309  0.36426365  0.26023588  1.0
  O  O1  1  0.79126787  0.19776592  0.18392804  1.0
  O  O2  1  0.72612703  0.42006269  0.79298306  1.0
  O  O3  1  0.74379861  0.78297269  0.25408047  1.0
  O  O4  1  0.41318402  0.84927869  0.73901683  1.0
  O  O5  1  0.17449692  0.50360227  0.22498992  1.0
  O  O6  1  0.21275090  0.27411166  0.74923009  1.0
