# generated using pymatgen
data_Ba2YTaO6
_symmetry_space_group_name_H-M   'P 1'
_cell_length_a   7.81428762
_cell_length_b   5.50665228
_cell_length_c   6.91109958
_cell_angle_alpha   111.82146075
_cell_angle_beta   107.29150059
_cell_angle_gamma   108.72652704
_symmetry_Int_Tables_number   1
_chemical_formula_structural   Ba2YTaO6
_chemical_formula_sum   'Ba2 Y1 Ta1 O6'
_cell_volume   230.25291801
_cell_formula_units_Z   1
loop_
 _symmetry_equiv_pos_site_id
 _symmetry_equiv_pos_as_xyz
  1  'x, y, z'
loop_
 _atom_site_type_symbol
 _atom_site_label
 _atom_site_symmetry_multiplicity
 _atom_site_fract_x
 _atom_site_fract_y
 _atom_site_fract_z
 _atom_site_occupancy
  Ba  Ba0  1  0.25403148  0.53042800  0.56782057  1.0
  Ba  Ba1  1  0.71703422  0.55286228  0.22291948  1.0
  Y  Y2  1  0.94305647  0.92591283  0.89468849  1.0
  Ta  Ta3  1  0.60098631  0.11914990  0.57447436  1.0
  O  O4  1  0.86788494  0.15711399  0.71556605  1.0
  O  O5  1  0.13685412  0.97052962  0.20391882  1.0
  O  O6  1  0.52623927  0.09151948  0.80340797  1.0
  O  O7  1  0.25458861  0.02076869  0.43983512  1.0
  O  O8  1  0.48795967  0.77011218  0.29449022  1.0
  O  O9  1  0.67631904  0.50360700  0.59820433  1.0
