# generated using pymatgen
data_BaAg5
_symmetry_space_group_name_H-M   'P 1'
_cell_length_a   7.86579418
_cell_length_b   7.46971655
_cell_length_c   5.74640608
_cell_angle_alpha   78.02940369
_cell_angle_beta   86.64036560
_cell_angle_gamma   128.35939026
_symmetry_Int_Tables_number   1
_chemical_formula_structural   BaAg5
_chemical_formula_sum   'Ba1 Ag5'
_cell_volume   251.15018217
_cell_formula_units_Z   1
loop_
 _symmetry_equiv_pos_site_id
 _symmetry_equiv_pos_as_xyz
  1  'x, y, z'
loop_
 _atom_site_type_symbol
 _atom_site_label
 _atom_site_symmetry_multiplicity
 _atom_site_fract_x
 _atom_site_fract_y
 _atom_site_fract_z
 _atom_site_occupancy
  Ba  Ba1  1  0.00000000  0.00000000  0.00000000  1.0
  Ag  Ag1  1  0.32337326  0.66991204  0.00000000  1.0
  Ag  Ag2  1  0.66985303  0.32601559  0.00000000  1.0
  Ag  Ag3  1  0.54820758  0.00000000  0.49279526  1.0
  Ag  Ag4  1  0.54285979  0.41516459  0.52346593  1.0
  Ag  Ag5  1  0.00000000  0.53076214  0.59769499  1.0
