# generated using pymatgen
data_BaBiIO2
_symmetry_space_group_name_H-M   'P 1'
_cell_length_a   9.70452154
_cell_length_b   8.04765663
_cell_length_c   6.16487212
_cell_angle_alpha   98.31017872
_cell_angle_beta   105.98420368
_cell_angle_gamma   127.99464275
_symmetry_Int_Tables_number   1
_chemical_formula_structural   BaBiIO2
_chemical_formula_sum   'Ba2 Bi2 I2 O4'
_cell_volume   331.94479193
_cell_formula_units_Z   2
loop_
 _symmetry_equiv_pos_site_id
 _symmetry_equiv_pos_as_xyz
  1  'x, y, z'
loop_
 _atom_site_type_symbol
 _atom_site_label
 _atom_site_symmetry_multiplicity
 _atom_site_fract_x
 _atom_site_fract_y
 _atom_site_fract_z
 _atom_site_occupancy
  Ba  Ba0  1  0.45771054  0.39699630  0.63253088  1.0
  Ba  Ba1  1  0.37922810  0.99012593  0.00516332  1.0
  Bi  Bi2  1  0.90976191  0.70280968  0.31697590  1.0
  Bi  Bi3  1  0.01087337  0.02650131  0.87164242  1.0
  I  I4  1  0.24273472  0.64272588  0.41279341  1.0
  I  I5  1  0.71680681  0.91080649  0.18348989  1.0
  O  O6  1  0.80804395  0.66708160  0.61143834  1.0
  O  O7  1  0.19639545  0.07663703  0.71972971  1.0
  O  O8  1  0.16977405  0.02243878  0.18039844  1.0
  O  O9  1  0.64039797  0.38140930  0.02839305  1.0
