# generated using pymatgen
data_BaCN2
_symmetry_space_group_name_H-M   'P 1'
_cell_length_a   26.15304757
_cell_length_b   49.42804115
_cell_length_c   7.71511139
_cell_angle_alpha   127.23703711
_cell_angle_beta   39.50679262
_cell_angle_gamma   160.49618777
_symmetry_Int_Tables_number   1
_chemical_formula_structural   BaCN2
_chemical_formula_sum   'Ba1 C1 N2'
_cell_volume   1732.85313702
_cell_formula_units_Z   1
loop_
 _symmetry_equiv_pos_site_id
 _symmetry_equiv_pos_as_xyz
  1  'x, y, z'
loop_
 _atom_site_type_symbol
 _atom_site_label
 _atom_site_symmetry_multiplicity
 _atom_site_fract_x
 _atom_site_fract_y
 _atom_site_fract_z
 _atom_site_occupancy
  Ba  Ba0  1  0.07087176  0.02669530  0.92919319  1.0
  C  C1  1  0.64873554  0.72461679  0.26000805  1.0
  N  N2  1  0.62140367  0.70278721  0.52342285  1.0
  N  N3  1  0.28817986  0.04188710  0.84963123  1.0
