# generated using pymatgen
data_BaGaSi
_symmetry_space_group_name_H-M   'P 1'
_cell_length_a   5.95874548
_cell_length_b   4.53276491
_cell_length_c   6.31239223
_cell_angle_alpha   88.96963501
_cell_angle_beta   92.57003784
_cell_angle_gamma   128.65269470
_symmetry_Int_Tables_number   1
_chemical_formula_structural   BaGaSi
_chemical_formula_sum   'Ba1 Ga1 Si1'
_cell_volume   133.00265246
_cell_formula_units_Z   1
loop_
 _symmetry_equiv_pos_site_id
 _symmetry_equiv_pos_as_xyz
  1  'x, y, z'
loop_
 _atom_site_type_symbol
 _atom_site_label
 _atom_site_symmetry_multiplicity
 _atom_site_fract_x
 _atom_site_fract_y
 _atom_site_fract_z
 _atom_site_occupancy
  Ba  Ba1  1  0.48004296  0.64526492  0.00000000  1.0
  Ga  Ga1  1  0.66754586  0.32587600  0.46844712  1.0
  Si  Si1  1  0.00000000  0.00000000  0.39042386  1.0
