# generated using pymatgen
data_BaTiSe3
_symmetry_space_group_name_H-M   'P 1'
_cell_length_a   5.58981943
_cell_length_b   9.78276539
_cell_length_c   5.21400070
_cell_angle_alpha   95.49543762
_cell_angle_beta   90.39233398
_cell_angle_gamma   111.87497711
_symmetry_Int_Tables_number   1
_chemical_formula_structural   BaTiSe3
_chemical_formula_sum   'Ba2 Ti2 Se6'
_cell_volume   263.09741490
_cell_formula_units_Z   2
loop_
 _symmetry_equiv_pos_site_id
 _symmetry_equiv_pos_as_xyz
  1  'x, y, z'
loop_
 _atom_site_type_symbol
 _atom_site_label
 _atom_site_symmetry_multiplicity
 _atom_site_fract_x
 _atom_site_fract_y
 _atom_site_fract_z
 _atom_site_occupancy
  Ba  Ba1  1  0.32717434  0.73090208  0.84810448  1.0
  Ba  Ba2  1  0.59191108  0.34189388  0.14095962  1.0
  Ti  Ti1  1  0.00000000  0.00000000  0.56156272  1.0
  Ti  Ti2  1  0.00000000  0.00000000  0.00000000  1.0
  Se  Se1  1  0.18635708  0.88888860  0.20305705  1.0
  Se  Se2  1  0.35711178  0.33422363  0.20307973  1.0
  Se  Se3  1  0.69004375  0.74118763  0.33470124  1.0
  Se  Se4  1  0.71403944  0.14868227  0.58733177  1.0
  Se  Se5  1  0.83340651  0.80373794  0.78185987  1.0
  Se  Se6  1  0.32117274  0.24634890  0.60599047  1.0
