# generated using pymatgen
data_BaZrO3
_symmetry_space_group_name_H-M   'P 1'
_cell_length_a   22.49881426
_cell_length_b   8.57287302
_cell_length_c   10.28961550
_cell_angle_alpha   96.53082064
_cell_angle_beta   100.53401191
_cell_angle_gamma   100.17940037
_symmetry_Int_Tables_number   1
_chemical_formula_structural   BaZrO3
_chemical_formula_sum   'Ba2 Zr2 O6'
_cell_volume   1898.49448119
_cell_formula_units_Z   2
loop_
 _symmetry_equiv_pos_site_id
 _symmetry_equiv_pos_as_xyz
  1  'x, y, z'
loop_
 _atom_site_type_symbol
 _atom_site_label
 _atom_site_symmetry_multiplicity
 _atom_site_fract_x
 _atom_site_fract_y
 _atom_site_fract_z
 _atom_site_occupancy
  Ba  Ba0  1  0.31448978  0.28673234  0.30386154  1.0
  Ba  Ba1  1  0.25891108  0.37080123  0.72847525  1.0
  Zr  Zr2  1  0.64121063  0.04796163  0.05297425  1.0
  Zr  Zr3  1  0.46427273  0.58927996  0.46980117  1.0
  O  O4  1  0.08915621  0.63353273  0.47569112  1.0
  O  O5  1  0.71472124  0.37906172  0.78191203  1.0
  O  O6  1  0.33806845  0.24623453  0.20243375  1.0
  O  O7  1  0.24111814  0.46285243  0.27410471  1.0
  O  O8  1  0.82935479  0.97288686  0.96756997  1.0
  O  O9  1  0.10222869  0.34798660  0.14796958  1.0
