# generated using pymatgen
data_Be5Pd
_symmetry_space_group_name_H-M   'P 1'
_cell_length_a   4.94482231
_cell_length_b   4.60300970
_cell_length_c   4.33036566
_cell_angle_alpha   52.93239212
_cell_angle_beta   45.89109802
_cell_angle_gamma   51.12841797
_symmetry_Int_Tables_number   1
_chemical_formula_structural   Be5Pd
_chemical_formula_sum   'Be5 Pd1'
_cell_volume   52.61498247
_cell_formula_units_Z   1
loop_
 _symmetry_equiv_pos_site_id
 _symmetry_equiv_pos_as_xyz
  1  'x, y, z'
loop_
 _atom_site_type_symbol
 _atom_site_label
 _atom_site_symmetry_multiplicity
 _atom_site_fract_x
 _atom_site_fract_y
 _atom_site_fract_z
 _atom_site_occupancy
  Be  Be1  1  0.12242442  0.38365811  0.24187884  1.0
  Be  Be2  1  0.78401357  0.63213199  0.62557214  1.0
  Be  Be3  1  0.75692469  0.67345285  0.12293923  1.0
  Be  Be4  1  0.13787833  0.65445662  0.51031250  1.0
  Be  Be5  1  0.66754925  0.00000000  0.64605618  1.0
  Pd  Pd1  1  0.00000000  0.00000000  0.00000000  1.0
