# generated using pymatgen
data_Be
_symmetry_space_group_name_H-M   'P 1'
_cell_length_a   4.00348234
_cell_length_b   5.30920506
_cell_length_c   4.46197510
_cell_angle_alpha   74.20140076
_cell_angle_beta   72.42827606
_cell_angle_gamma   58.00613022
_symmetry_Int_Tables_number   1
_chemical_formula_structural   Be
_chemical_formula_sum   Be5
_cell_volume   75.93843285
_cell_formula_units_Z   5
loop_
 _symmetry_equiv_pos_site_id
 _symmetry_equiv_pos_as_xyz
  1  'x, y, z'
loop_
 _atom_site_type_symbol
 _atom_site_label
 _atom_site_symmetry_multiplicity
 _atom_site_fract_x
 _atom_site_fract_y
 _atom_site_fract_z
 _atom_site_occupancy
  Be  Be1  1  0.00000000  0.00000000  0.00000000  1.0
  Be  Be2  1  0.52080363  0.76798815  0.66955614  1.0
  Be  Be3  1  0.65007418  0.69848669  0.00000000  1.0
  Be  Be4  1  0.20548129  0.45949727  0.68492550  1.0
  Be  Be5  1  0.65780687  0.12213719  0.57509810  1.0
