# generated using pymatgen
data_BeAlIr2
_symmetry_space_group_name_H-M   'P 1'
_cell_length_a   2.61824012
_cell_length_b   4.76254463
_cell_length_c   3.30837131
_cell_angle_alpha   57.79136658
_cell_angle_beta   67.88047791
_cell_angle_gamma   61.66543579
_symmetry_Int_Tables_number   1
_chemical_formula_structural   BeAlIr2
_chemical_formula_sum   'Be1 Al1 Ir2'
_cell_volume   30.29747679
_cell_formula_units_Z   1
loop_
 _symmetry_equiv_pos_site_id
 _symmetry_equiv_pos_as_xyz
  1  'x, y, z'
loop_
 _atom_site_type_symbol
 _atom_site_label
 _atom_site_symmetry_multiplicity
 _atom_site_fract_x
 _atom_site_fract_y
 _atom_site_fract_z
 _atom_site_occupancy
  Be  Be1  1  0.76740122  0.73036414  0.72323805  1.0
  Al  Al1  1  0.23366427  0.14571717  0.29042494  1.0
  Ir  Ir1  1  0.00000000  0.00000000  0.00000000  1.0
  Ir  Ir2  1  0.63794869  0.49694765  0.45812029  1.0
