# generated using pymatgen
data_Ca(CdAu2)2
_symmetry_space_group_name_H-M   'P 1'
_cell_length_a   4.68716621
_cell_length_b   4.36257076
_cell_length_c   5.82516336
_cell_angle_alpha   104.29459381
_cell_angle_beta   113.32816315
_cell_angle_gamma   125.66756439
_symmetry_Int_Tables_number   1
_chemical_formula_structural   Ca(CdAu2)2
_chemical_formula_sum   'Ca1 Cd2 Au4'
_cell_volume   68.24049593
_cell_formula_units_Z   1
loop_
 _symmetry_equiv_pos_site_id
 _symmetry_equiv_pos_as_xyz
  1  'x, y, z'
loop_
 _atom_site_type_symbol
 _atom_site_label
 _atom_site_symmetry_multiplicity
 _atom_site_fract_x
 _atom_site_fract_y
 _atom_site_fract_z
 _atom_site_occupancy
  Ca  Ca1  1  0.00000000  0.00000000  0.00000000  1.0
  Cd  Cd1  1  0.55986512  0.84016263  0.51332533  1.0
  Cd  Cd2  1  0.81264251  0.27295703  0.61744070  1.0
  Au  Au1  1  0.20841783  0.50425422  0.72471315  1.0
  Au  Au2  1  0.71319765  0.79554594  0.49470076  1.0
  Au  Au3  1  0.60434699  0.53858119  0.10483012  1.0
  Au  Au4  1  0.48507744  0.46878126  0.00000000  1.0
