# generated using pymatgen
data_Ca2As2O7
_symmetry_space_group_name_H-M   'P 1'
_cell_length_a   6.60189666
_cell_length_b   6.30229478
_cell_length_c   5.77483210
_cell_angle_alpha   109.87762001
_cell_angle_beta   97.40377990
_cell_angle_gamma   115.36001847
_symmetry_Int_Tables_number   1
_chemical_formula_structural   Ca2As2O7
_chemical_formula_sum   'Ca2 As2 O7'
_cell_volume   193.23914728
_cell_formula_units_Z   1
loop_
 _symmetry_equiv_pos_site_id
 _symmetry_equiv_pos_as_xyz
  1  'x, y, z'
loop_
 _atom_site_type_symbol
 _atom_site_label
 _atom_site_symmetry_multiplicity
 _atom_site_fract_x
 _atom_site_fract_y
 _atom_site_fract_z
 _atom_site_occupancy
  Ca  Ca0  1  0.43168414  0.50309292  0.28674388  1.0
  Ca  Ca1  1  0.91487928  0.40374815  0.79663600  1.0
  As  As2  1  0.52319912  0.00195871  0.10677931  1.0
  As  As3  1  0.93829616  0.00071248  0.12172935  1.0
  O  O4  1  0.38560399  0.09674732  0.89568937  1.0
  O  O5  1  0.60415454  0.36257027  0.99045140  1.0
  O  O6  1  0.55832376  0.23932845  0.43545349  1.0
  O  O7  1  0.28944634  0.72989261  0.10203961  1.0
  O  O8  1  0.95688576  0.09114609  0.87189874  1.0
  O  O9  1  0.73611555  0.52587752  0.54511639  1.0
  O  O10  1  0.10264261  0.29726337  0.40073842  1.0
