# generated using pymatgen
data_Ca2CrAgF6
_symmetry_space_group_name_H-M   'P 1'
_cell_length_a   5.81760168
_cell_length_b   7.17140579
_cell_length_c   5.78343964
_cell_angle_alpha   58.40657425
_cell_angle_beta   61.60584641
_cell_angle_gamma   55.43104553
_symmetry_Int_Tables_number   1
_chemical_formula_structural   Ca2CrAgF6
_chemical_formula_sum   'Ca2 Cr1 Ag1 F6'
_cell_volume   163.68033653
_cell_formula_units_Z   1
loop_
 _symmetry_equiv_pos_site_id
 _symmetry_equiv_pos_as_xyz
  1  'x, y, z'
loop_
 _atom_site_type_symbol
 _atom_site_label
 _atom_site_symmetry_multiplicity
 _atom_site_fract_x
 _atom_site_fract_y
 _atom_site_fract_z
 _atom_site_occupancy
  Ca  Ca0  1  0.24531347  0.30151099  0.28347436  1.0
  Ca  Ca1  1  0.78288078  0.80193257  0.78692263  1.0
  Cr  Cr2  1  0.00000000  0.00000000  0.00000000  1.0
  Ag  Ag3  1  0.50365305  0.42876950  0.24378100  1.0
  F  F4  1  0.17933086  0.52648103  0.18814236  1.0
  F  F5  1  0.64058638  0.86128217  0.27242950  1.0
  F  F6  1  0.80959105  0.31699675  0.72984064  1.0
  F  F7  1  0.61504054  0.30678445  0.22129565  1.0
  F  F8  1  0.29640442  0.87583125  0.70845932  1.0
  F  F9  1  0.17336883  0.26535890  0.85734701  1.0
