# generated using pymatgen
data_Ca2N
_symmetry_space_group_name_H-M   'P 1'
_cell_length_a   8.14428806
_cell_length_b   4.56206512
_cell_length_c   6.00307989
_cell_angle_alpha   44.38482285
_cell_angle_beta   32.98678207
_cell_angle_gamma   38.92861557
_symmetry_Int_Tables_number   1
_chemical_formula_structural   Ca2N
_chemical_formula_sum   'Ca2 N1'
_cell_volume   75.03469748
_cell_formula_units_Z   1
loop_
 _symmetry_equiv_pos_site_id
 _symmetry_equiv_pos_as_xyz
  1  'x, y, z'
loop_
 _atom_site_type_symbol
 _atom_site_label
 _atom_site_symmetry_multiplicity
 _atom_site_fract_x
 _atom_site_fract_y
 _atom_site_fract_z
 _atom_site_occupancy
  Ca  Ca1  1  0.73071158  0.77652407  0.83257818  1.0
  Ca  Ca2  1  0.25623861  0.21835786  0.17516857  1.0
  N  N1  1  0.00000000  0.00000000  0.00000000  1.0
