# generated using pymatgen
data_Ca2PI
_symmetry_space_group_name_H-M   'P 1'
_cell_length_a   8.17596626
_cell_length_b   8.50132942
_cell_length_c   9.38027954
_cell_angle_alpha   38.65058136
_cell_angle_beta   38.59674835
_cell_angle_gamma   34.27673340
_symmetry_Int_Tables_number   1
_chemical_formula_structural   Ca2PI
_chemical_formula_sum   'Ca2 P1 I1'
_cell_volume   211.44357714
_cell_formula_units_Z   1
loop_
 _symmetry_equiv_pos_site_id
 _symmetry_equiv_pos_as_xyz
  1  'x, y, z'
loop_
 _atom_site_type_symbol
 _atom_site_label
 _atom_site_symmetry_multiplicity
 _atom_site_fract_x
 _atom_site_fract_y
 _atom_site_fract_z
 _atom_site_occupancy
  Ca  Ca1  1  0.85653019  0.73283833  0.85026944  1.0
  Ca  Ca2  1  0.29427761  0.19897717  0.30044127  1.0
  P  P1  1  0.57405478  0.52840889  0.58561409  1.0
  I  I1  1  0.00000000  0.00000000  0.00000000  1.0
