# generated using pymatgen
data_CaAl2Sb2O7
_symmetry_space_group_name_H-M   'P 1'
_cell_length_a   11.16041466
_cell_length_b   12.20208462
_cell_length_c   11.22035955
_cell_angle_alpha   29.76433489
_cell_angle_beta   32.29258761
_cell_angle_gamma   38.79769116
_symmetry_Int_Tables_number   1
_chemical_formula_structural   CaAl2Sb2O7
_chemical_formula_sum   'Ca1 Al2 Sb2 O7'
_cell_volume   399.22604373
_cell_formula_units_Z   1
loop_
 _symmetry_equiv_pos_site_id
 _symmetry_equiv_pos_as_xyz
  1  'x, y, z'
loop_
 _atom_site_type_symbol
 _atom_site_label
 _atom_site_symmetry_multiplicity
 _atom_site_fract_x
 _atom_site_fract_y
 _atom_site_fract_z
 _atom_site_occupancy
  Ca  Ca0  1  0.60637012  0.43993296  0.62159476  1.0
  Al  Al1  1  0.61214860  0.32594102  0.34199918  1.0
  Al  Al2  1  0.12068312  0.28094222  0.97868071  1.0
  Sb  Sb3  1  0.51860840  0.73621145  0.81480695  1.0
  Sb  Sb4  1  0.41587406  0.39828620  0.03325279  1.0
  O  O5  1  0.21495935  0.35675320  0.55907253  1.0
  O  O6  1  0.11627027  0.82811472  0.54803266  1.0
  O  O7  1  0.59185447  0.99963381  0.92200373  1.0
  O  O8  1  0.25038596  0.66642175  0.56882708  1.0
  O  O9  1  0.88589564  0.01626461  0.33804105  1.0
  O  O10  1  0.99132484  0.00021434  0.00731095  1.0
  O  O11  1  0.71124661  0.99858125  0.45138579  1.0
