# generated using pymatgen
data_CdBr2
_symmetry_space_group_name_H-M   'P 1'
_cell_length_a   14.14290810
_cell_length_b   14.98321629
_cell_length_c   12.60117245
_cell_angle_alpha   23.70393562
_cell_angle_beta   27.11547089
_cell_angle_gamma   12.12750053
_symmetry_Int_Tables_number   1
_chemical_formula_structural   CdBr2
_chemical_formula_sum   'Cd2 Br4'
_cell_volume   225.11099228
_cell_formula_units_Z   2
loop_
 _symmetry_equiv_pos_site_id
 _symmetry_equiv_pos_as_xyz
  1  'x, y, z'
loop_
 _atom_site_type_symbol
 _atom_site_label
 _atom_site_symmetry_multiplicity
 _atom_site_fract_x
 _atom_site_fract_y
 _atom_site_fract_z
 _atom_site_occupancy
  Cd  Cd1  1  0.00000000  0.00000000  0.00000000  1.0
  Cd  Cd2  1  0.40114874  0.62594831  0.38192558  1.0
  Br  Br1  1  0.33079743  0.30160475  0.13166577  1.0
  Br  Br2  1  0.80854064  0.81003034  0.72215128  1.0
  Br  Br3  1  0.51322609  0.80587691  0.70181328  1.0
  Br  Br4  1  0.63589376  0.18640941  0.45274311  1.0
