# generated using pymatgen
data_CdF2
_symmetry_space_group_name_H-M   'P 1'
_cell_length_a   3.86162064
_cell_length_b   3.90125953
_cell_length_c   3.92569646
_cell_angle_alpha   59.67501939
_cell_angle_beta   59.38643136
_cell_angle_gamma   58.91846608
_symmetry_Int_Tables_number   1
_chemical_formula_structural   CdF2
_chemical_formula_sum   'Cd1 F2'
_cell_volume   41.17442594
_cell_formula_units_Z   1
loop_
 _symmetry_equiv_pos_site_id
 _symmetry_equiv_pos_as_xyz
  1  'x, y, z'
loop_
 _atom_site_type_symbol
 _atom_site_label
 _atom_site_symmetry_multiplicity
 _atom_site_fract_x
 _atom_site_fract_y
 _atom_site_fract_z
 _atom_site_occupancy
  Cd  Cd0  1  0.00725433  0.99892316  0.00486240  1.0
  F  F1  1  0.75936048  0.74971589  0.75270126  1.0
  F  F2  1  0.25467245  0.24884944  0.25525854  1.0
