# generated using pymatgen
data_CdF2
_symmetry_space_group_name_H-M   'P 1'
_cell_length_a   3.75578403
_cell_length_b   3.90779071
_cell_length_c   3.94278250
_cell_angle_alpha   60.65419624
_cell_angle_beta   59.73498645
_cell_angle_gamma   60.13946142
_symmetry_Int_Tables_number   1
_chemical_formula_structural   CdF2
_chemical_formula_sum   'Cd1 F2'
_cell_volume   41.07650835
_cell_formula_units_Z   1
loop_
 _symmetry_equiv_pos_site_id
 _symmetry_equiv_pos_as_xyz
  1  'x, y, z'
loop_
 _atom_site_type_symbol
 _atom_site_label
 _atom_site_symmetry_multiplicity
 _atom_site_fract_x
 _atom_site_fract_y
 _atom_site_fract_z
 _atom_site_occupancy
  Cd  Cd0  1  0.04406552  0.02169915  0.04168941  1.0
  F  F1  1  0.80064506  0.76974865  0.78961246  1.0
  F  F2  1  0.28830991  0.27482953  0.29557326  1.0
