# generated using pymatgen
data_CdF2
_symmetry_space_group_name_H-M   'P 1'
_cell_length_a   3.65472730
_cell_length_b   3.83335163
_cell_length_c   3.94234187
_cell_angle_alpha   62.57990054
_cell_angle_beta   61.69707364
_cell_angle_gamma   62.13274740
_symmetry_Int_Tables_number   1
_chemical_formula_structural   CdF2
_chemical_formula_sum   'Cd1 F2'
_cell_volume   40.91466987
_cell_formula_units_Z   1
loop_
 _symmetry_equiv_pos_site_id
 _symmetry_equiv_pos_as_xyz
  1  'x, y, z'
loop_
 _atom_site_type_symbol
 _atom_site_label
 _atom_site_symmetry_multiplicity
 _atom_site_fract_x
 _atom_site_fract_y
 _atom_site_fract_z
 _atom_site_occupancy
  Cd  Cd0  1  0.97311371  0.01436693  0.02306027  1.0
  F  F1  1  0.72768432  0.75896065  0.76854051  1.0
  F  F2  1  0.21687002  0.26712294  0.28097259  1.0
