# generated using pymatgen
data_CdF2
_symmetry_space_group_name_H-M   'P 1'
_cell_length_a   3.90920155
_cell_length_b   3.73060349
_cell_length_c   4.00705281
_cell_angle_alpha   59.60676362
_cell_angle_beta   60.53719271
_cell_angle_gamma   58.57639531
_symmetry_Int_Tables_number   1
_chemical_formula_structural   CdF2
_chemical_formula_sum   'Cd1 F2'
_cell_volume   40.89665581
_cell_formula_units_Z   1
loop_
 _symmetry_equiv_pos_site_id
 _symmetry_equiv_pos_as_xyz
  1  'x, y, z'
loop_
 _atom_site_type_symbol
 _atom_site_label
 _atom_site_symmetry_multiplicity
 _atom_site_fract_x
 _atom_site_fract_y
 _atom_site_fract_z
 _atom_site_occupancy
  Cd  Cd0  1  0.98006053  0.94623589  0.92356342  1.0
  F  F1  1  0.72690673  0.70648296  0.66899124  1.0
  F  F2  1  0.23146010  0.18611970  0.17998218  1.0
