# generated using pymatgen
data_CdF2
_symmetry_space_group_name_H-M   'P 1'
_cell_length_a   3.86447950
_cell_length_b   3.87179470
_cell_length_c   3.87343979
_cell_angle_alpha   60.28983179
_cell_angle_beta   60.33878517
_cell_angle_gamma   60.28634371
_symmetry_Int_Tables_number   1
_chemical_formula_structural   CdF2
_chemical_formula_sum   'Cd1 F2'
_cell_volume   41.26405059
_cell_formula_units_Z   1
loop_
 _symmetry_equiv_pos_site_id
 _symmetry_equiv_pos_as_xyz
  1  'x, y, z'
loop_
 _atom_site_type_symbol
 _atom_site_label
 _atom_site_symmetry_multiplicity
 _atom_site_fract_x
 _atom_site_fract_y
 _atom_site_fract_z
 _atom_site_occupancy
  Cd  Cd0  1  0.02641679  0.97091856  0.99405699  1.0
  F  F1  1  0.77618738  0.72146274  0.74249002  1.0
  F  F2  1  0.27678665  0.22245466  0.24254287  1.0
