# generated using pymatgen
data_CdF2
_symmetry_space_group_name_H-M   'P 1'
_cell_length_a   3.87256437
_cell_length_b   3.89315126
_cell_length_c   3.87575297
_cell_angle_alpha   60.07065909
_cell_angle_beta   59.88660598
_cell_angle_gamma   60.05915118
_symmetry_Int_Tables_number   1
_chemical_formula_structural   CdF2
_chemical_formula_sum   'Cd1 F2'
_cell_volume   41.32302260
_cell_formula_units_Z   1
loop_
 _symmetry_equiv_pos_site_id
 _symmetry_equiv_pos_as_xyz
  1  'x, y, z'
loop_
 _atom_site_type_symbol
 _atom_site_label
 _atom_site_symmetry_multiplicity
 _atom_site_fract_x
 _atom_site_fract_y
 _atom_site_fract_z
 _atom_site_occupancy
  Cd  Cd0  1  0.99757484  0.98672426  0.97820619  1.0
  F  F1  1  0.74698770  0.73723649  0.72780563  1.0
  F  F2  1  0.24635499  0.23882736  0.22743907  1.0
