# generated using pymatgen
data_CdSO4
_symmetry_space_group_name_H-M   'P 1'
_cell_length_a   4.30789861
_cell_length_b   6.48579595
_cell_length_c   8.85619709
_cell_angle_alpha   79.25659224
_cell_angle_beta   90.31617910
_cell_angle_gamma   135.36333462
_symmetry_Int_Tables_number   1
_chemical_formula_structural   CdSO4
_chemical_formula_sum   'Cd2 S2 O8'
_cell_volume   167.88693963
_cell_formula_units_Z   2
loop_
 _symmetry_equiv_pos_site_id
 _symmetry_equiv_pos_as_xyz
  1  'x, y, z'
loop_
 _atom_site_type_symbol
 _atom_site_label
 _atom_site_symmetry_multiplicity
 _atom_site_fract_x
 _atom_site_fract_y
 _atom_site_fract_z
 _atom_site_occupancy
  Cd  Cd0  1  0.12704551  0.14209733  0.43465350  1.0
  Cd  Cd1  1  0.18928030  0.19914715  0.85538843  1.0
  S  S2  1  0.77986397  0.35176980  0.15196313  1.0
  S  S3  1  0.21560100  0.70229774  0.71620902  1.0
  O  O4  1  0.60312815  0.10939119  0.93536179  1.0
  O  O5  1  0.68492832  0.61749885  0.51710898  1.0
  O  O6  1  0.44560609  0.36437730  0.13875105  1.0
  O  O7  1  0.69016434  0.02294038  0.66275142  1.0
  O  O8  1  0.91904784  0.71499235  0.79102944  1.0
  O  O9  1  0.72189407  0.23438956  0.32769102  1.0
  O  O10  1  0.50588592  0.02098746  0.10777207  1.0
  O  O11  1  0.03328747  0.62759497  0.54272835  1.0
