# generated using pymatgen
data_Ce4GeS3
_symmetry_space_group_name_H-M   'P 1'
_cell_length_a   6.54644632
_cell_length_b   7.97881842
_cell_length_c   6.47694683
_cell_angle_alpha   130.37719727
_cell_angle_beta   126.99682617
_cell_angle_gamma   72.48247528
_symmetry_Int_Tables_number   1
_chemical_formula_structural   Ce4GeS3
_chemical_formula_sum   'Ce4 Ge1 S3'
_cell_volume   203.62928941
_cell_formula_units_Z   1
loop_
 _symmetry_equiv_pos_site_id
 _symmetry_equiv_pos_as_xyz
  1  'x, y, z'
loop_
 _atom_site_type_symbol
 _atom_site_label
 _atom_site_symmetry_multiplicity
 _atom_site_fract_x
 _atom_site_fract_y
 _atom_site_fract_z
 _atom_site_occupancy
  Ce  Ce1  1  0.16844618  0.39282608  0.36934024  1.0
  Ce  Ce2  1  0.35011160  0.00000000  0.36783063  1.0
  Ce  Ce3  1  0.22221884  0.33311671  0.00000000  1.0
  Ce  Ce4  1  0.71417677  0.75073743  0.00000000  1.0
  Ge  Ge1  1  0.95251924  0.93381476  0.00000000  1.0
  S  S1  1  0.53372949  0.38622367  0.00000000  1.0
  S  S2  1  0.87891555  0.12534988  0.60069674  1.0
  S  S3  1  0.10435838  0.70513844  0.51475221  1.0
