# generated using pymatgen
data_CeO
_symmetry_space_group_name_H-M   'P 1'
_cell_length_a   2.20935488
_cell_length_b   3.21544576
_cell_length_c   2.98210382
_cell_angle_alpha   65.87200165
_cell_angle_beta   53.64674759
_cell_angle_gamma   70.99414825
_symmetry_Int_Tables_number   1
_chemical_formula_structural   CeO
_chemical_formula_sum   'Ce1 O1'
_cell_volume   15.47087706
_cell_formula_units_Z   1
loop_
 _symmetry_equiv_pos_site_id
 _symmetry_equiv_pos_as_xyz
  1  'x, y, z'
loop_
 _atom_site_type_symbol
 _atom_site_label
 _atom_site_symmetry_multiplicity
 _atom_site_fract_x
 _atom_site_fract_y
 _atom_site_fract_z
 _atom_site_occupancy
  Ce  Ce1  1  0.00000000  0.00000000  0.00000000  1.0
  O  O1  1  0.55394530  0.53627229  0.58103269  1.0
