# generated using pymatgen
data_Co3H
_symmetry_space_group_name_H-M   'P 1'
_cell_length_a   2.04483747
_cell_length_b   2.65462422
_cell_length_c   3.21711159
_cell_angle_alpha   105.89265442
_cell_angle_beta   81.08396912
_cell_angle_gamma   109.01893616
_symmetry_Int_Tables_number   1
_chemical_formula_structural   Co3H
_chemical_formula_sum   'Co3 H1'
_cell_volume   15.83741704
_cell_formula_units_Z   1
loop_
 _symmetry_equiv_pos_site_id
 _symmetry_equiv_pos_as_xyz
  1  'x, y, z'
loop_
 _atom_site_type_symbol
 _atom_site_label
 _atom_site_symmetry_multiplicity
 _atom_site_fract_x
 _atom_site_fract_y
 _atom_site_fract_z
 _atom_site_occupancy
  Co  Co1  1  0.47511876  0.48231012  0.00000000  1.0
  Co  Co2  1  0.48652279  0.00000000  0.63606143  1.0
  Co  Co3  1  0.15693033  0.61531246  0.23337248  1.0
  H  H1  1  0.00000000  0.00000000  0.00000000  1.0
