# generated using pymatgen
data_Co3W
_symmetry_space_group_name_H-M   'P 1'
_cell_length_a   1.90354490
_cell_length_b   2.80649710
_cell_length_c   2.25686955
_cell_angle_alpha   63.01860046
_cell_angle_beta   90.93981934
_cell_angle_gamma   116.47807312
_symmetry_Int_Tables_number   1
_chemical_formula_structural   Co3W
_chemical_formula_sum   'Co6 W2'
_cell_volume   9.35269652
_cell_formula_units_Z   2
loop_
 _symmetry_equiv_pos_site_id
 _symmetry_equiv_pos_as_xyz
  1  'x, y, z'
loop_
 _atom_site_type_symbol
 _atom_site_label
 _atom_site_symmetry_multiplicity
 _atom_site_fract_x
 _atom_site_fract_y
 _atom_site_fract_z
 _atom_site_occupancy
  Co  Co1  1  0.85199344  0.75592482  0.33358878  1.0
  Co  Co2  1  0.13243276  0.81579089  0.63357097  1.0
  Co  Co3  1  0.63400483  0.73557305  0.82932454  1.0
  Co  Co4  1  0.71422917  0.21179712  0.39667752  1.0
  Co  Co5  1  0.76893455  0.00000000  0.31892788  1.0
  Co  Co6  1  0.27389598  0.31048581  0.64778715  1.0
  W  W1  1  0.20408738  0.55062103  0.25632310  1.0
  W  W2  1  0.69795984  0.24887499  0.73254639  1.0
