# generated using pymatgen
data_CoF2
_symmetry_space_group_name_H-M   'P 1'
_cell_length_a   3.14449215
_cell_length_b   3.47507429
_cell_length_c   5.87083387
_cell_angle_alpha   76.08767700
_cell_angle_beta   77.57096100
_cell_angle_gamma   116.21288300
_symmetry_Int_Tables_number   1
_chemical_formula_structural   CoF2
_chemical_formula_sum   'Co2 F4'
_cell_volume   51.92180148
_cell_formula_units_Z   2
loop_
 _symmetry_equiv_pos_site_id
 _symmetry_equiv_pos_as_xyz
  1  'x, y, z'
loop_
 _atom_site_type_symbol
 _atom_site_label
 _atom_site_symmetry_multiplicity
 _atom_site_fract_x
 _atom_site_fract_y
 _atom_site_fract_z
 _atom_site_occupancy
  Co  Co1  1  0.00000000  0.00000000  0.00000000  1.0
  Co  Co2  1  0.62451047  0.55901039  0.65922439  1.0
  F  F1  1  0.00000000  0.41295639  0.28127345  1.0
  F  F2  1  0.00000000  0.52024978  0.38141614  1.0
  F  F3  1  0.41512856  0.15301403  0.72282845  1.0
  F  F4  1  0.33250710  0.52117312  0.13740352  1.0
