# generated using pymatgen
data_CoMoP
_symmetry_space_group_name_H-M   'P 1'
_cell_length_a   2.91738081
_cell_length_b   5.50143909
_cell_length_c   6.68758059
_cell_angle_alpha   100.96578979
_cell_angle_beta   94.65778351
_cell_angle_gamma   79.68974304
_symmetry_Int_Tables_number   1
_chemical_formula_structural   CoMoP
_chemical_formula_sum   'Co4 Mo4 P4'
_cell_volume   103.54933982
_cell_formula_units_Z   4
loop_
 _symmetry_equiv_pos_site_id
 _symmetry_equiv_pos_as_xyz
  1  'x, y, z'
loop_
 _atom_site_type_symbol
 _atom_site_label
 _atom_site_symmetry_multiplicity
 _atom_site_fract_x
 _atom_site_fract_y
 _atom_site_fract_z
 _atom_site_occupancy
  Co  Co1  1  0.73459905  0.66864872  0.70730144  1.0
  Co  Co2  1  0.16546366  0.89067435  0.14921218  1.0
  Co  Co3  1  0.77764195  0.21176204  0.64836341  1.0
  Co  Co4  1  0.10495844  0.24285334  0.57621676  1.0
  Mo  Mo1  1  0.22315171  0.37365630  0.80881846  1.0
  Mo  Mo2  1  0.18229261  0.96121776  0.57308841  1.0
  Mo  Mo3  1  0.81864440  0.00000000  0.49266851  1.0
  Mo  Mo4  1  0.77963591  0.69112992  0.10004321  1.0
  P  P1  1  0.18534184  0.88057530  0.20087090  1.0
  P  P2  1  0.26710254  0.30552235  0.00000000  1.0
  P  P3  1  0.64038777  0.31450862  0.69301569  1.0
  P  P4  1  0.53538114  0.50218195  0.80200565  1.0
