# generated using pymatgen
data_CrB
_symmetry_space_group_name_H-M   'P 1'
_cell_length_a   2.62857723
_cell_length_b   3.09548664
_cell_length_c   9.45998955
_cell_angle_alpha   88.52935028
_cell_angle_beta   94.16632080
_cell_angle_gamma   85.50103760
_symmetry_Int_Tables_number   1
_chemical_formula_structural   CrB
_chemical_formula_sum   'Cr4 B4'
_cell_volume   76.49529400
_cell_formula_units_Z   4
loop_
 _symmetry_equiv_pos_site_id
 _symmetry_equiv_pos_as_xyz
  1  'x, y, z'
loop_
 _atom_site_type_symbol
 _atom_site_label
 _atom_site_symmetry_multiplicity
 _atom_site_fract_x
 _atom_site_fract_y
 _atom_site_fract_z
 _atom_site_occupancy
  Cr  Cr1  1  0.25057644  0.73951328  0.14876109  1.0
  Cr  Cr2  1  0.74952984  0.56103468  0.69831741  1.0
  Cr  Cr3  1  0.66894972  0.13923788  0.91702664  1.0
  Cr  Cr4  1  0.00000000  0.34216723  0.36783084  1.0
  B  B1  1  0.76664734  0.91129380  0.44519457  1.0
  B  B2  1  0.94301105  0.76951158  0.84415257  1.0
  B  B3  1  0.48359752  0.21685061  0.62546325  1.0
  B  B4  1  0.00000000  0.59276646  0.19748005  1.0
