# generated using pymatgen
data_CrF3
_symmetry_space_group_name_H-M   'P 1'
_cell_length_a   6.16905499
_cell_length_b   6.40531826
_cell_length_c   5.68345737
_cell_angle_alpha   61.70378876
_cell_angle_beta   63.92776489
_cell_angle_gamma   58.93239212
_symmetry_Int_Tables_number   1
_chemical_formula_structural   CrF3
_chemical_formula_sum   'Cr2 F6'
_cell_volume   163.62816713
_cell_formula_units_Z   2
loop_
 _symmetry_equiv_pos_site_id
 _symmetry_equiv_pos_as_xyz
  1  'x, y, z'
loop_
 _atom_site_type_symbol
 _atom_site_label
 _atom_site_symmetry_multiplicity
 _atom_site_fract_x
 _atom_site_fract_y
 _atom_site_fract_z
 _atom_site_occupancy
  Cr  Cr1  1  0.87241101  0.15675968  0.93424857  1.0
  Cr  Cr2  1  0.46021050  0.30675846  0.45523277  1.0
  F  F1  1  0.00000000  0.27728727  0.68112785  1.0
  F  F2  1  0.60907489  0.26997137  0.82494473  1.0
  F  F3  1  0.39227480  0.68419254  0.00000000  1.0
  F  F4  1  0.83641088  0.69857466  0.14812025  1.0
  F  F5  1  0.35383269  0.82705343  0.60111970  1.0
  F  F6  1  0.64474940  0.00000000  0.42571154  1.0
