# generated using pymatgen
data_CrNiF6
_symmetry_space_group_name_H-M   'P 1'
_cell_length_a   4.52567577
_cell_length_b   4.42331362
_cell_length_c   5.93576431
_cell_angle_alpha   55.64131927
_cell_angle_beta   49.87409592
_cell_angle_gamma   64.41661835
_symmetry_Int_Tables_number   1
_chemical_formula_structural   CrNiF6
_chemical_formula_sum   'Cr1 Ni1 F6'
_cell_volume   74.56664192
_cell_formula_units_Z   1
loop_
 _symmetry_equiv_pos_site_id
 _symmetry_equiv_pos_as_xyz
  1  'x, y, z'
loop_
 _atom_site_type_symbol
 _atom_site_label
 _atom_site_symmetry_multiplicity
 _atom_site_fract_x
 _atom_site_fract_y
 _atom_site_fract_z
 _atom_site_occupancy
  Cr  Cr1  1  0.44813448  0.64220780  0.39816388  1.0
  Ni  Ni1  1  0.00000000  0.00000000  0.00000000  1.0
  F  F1  1  0.92176574  0.59501773  0.38208377  1.0
  F  F2  1  0.70697045  0.27008614  0.94030941  1.0
  F  F3  1  0.17854574  0.87851125  0.72833627  1.0
  F  F4  1  0.75614619  0.15183046  0.43879008  1.0
  F  F5  1  0.40210140  0.71249640  0.10461643  1.0
  F  F6  1  0.29903349  0.41708440  0.83879644  1.0
