# generated using pymatgen
data_Cs2AlTlF6
_symmetry_space_group_name_H-M   'P 1'
_cell_length_a   6.67002010
_cell_length_b   6.55010080
_cell_length_c   7.10649729
_cell_angle_alpha   57.49376678
_cell_angle_beta   65.21360779
_cell_angle_gamma   61.48697281
_symmetry_Int_Tables_number   1
_chemical_formula_structural   Cs2AlTlF6
_chemical_formula_sum   'Cs2 Al1 Tl1 F6'
_cell_volume   224.46334162
_cell_formula_units_Z   1
loop_
 _symmetry_equiv_pos_site_id
 _symmetry_equiv_pos_as_xyz
  1  'x, y, z'
loop_
 _atom_site_type_symbol
 _atom_site_label
 _atom_site_symmetry_multiplicity
 _atom_site_fract_x
 _atom_site_fract_y
 _atom_site_fract_z
 _atom_site_occupancy
  Cs  Cs1  1  0.78575325  0.69417858  0.81664014  1.0
  Cs  Cs2  1  0.31726623  0.23551863  0.35993278  1.0
  Al  Al1  1  0.00000000  0.00000000  0.00000000  1.0
  Tl  Tl1  1  0.54371011  0.34628072  0.42355150  1.0
  F  F1  1  0.66143739  0.21208233  0.21888000  1.0
  F  F2  1  0.26818949  0.32206935  0.78811496  1.0
  F  F3  1  0.20044616  0.89519465  0.74886894  1.0
  F  F4  1  0.12849399  0.65833545  0.12951434  1.0
  F  F5  1  0.64913255  0.15745142  0.89284003  1.0
  F  F6  1  0.86824948  0.70390624  0.21729492  1.0
