# generated using pymatgen
data_Cs2B2S5
_symmetry_space_group_name_H-M   'P 1'
_cell_length_a   7.03772623
_cell_length_b   5.61295047
_cell_length_c   13.32517044
_cell_angle_alpha   89.04211915
_cell_angle_beta   90.83770041
_cell_angle_gamma   92.32128727
_symmetry_Int_Tables_number   1
_chemical_formula_structural   Cs2B2S5
_chemical_formula_sum   'Cs2 B2 S5'
_cell_volume   525.81967761
_cell_formula_units_Z   1
loop_
 _symmetry_equiv_pos_site_id
 _symmetry_equiv_pos_as_xyz
  1  'x, y, z'
loop_
 _atom_site_type_symbol
 _atom_site_label
 _atom_site_symmetry_multiplicity
 _atom_site_fract_x
 _atom_site_fract_y
 _atom_site_fract_z
 _atom_site_occupancy
  Cs  Cs0  1  0.00856977  0.03087376  0.70527683  1.0
  Cs  Cs1  1  0.80673762  0.89401411  0.28089538  1.0
  B  B2  1  0.62089074  0.58082184  0.94229081  1.0
  B  B3  1  0.68100215  0.58739342  0.78381221  1.0
  S  S4  1  0.68324247  0.61549610  0.68001578  1.0
  S  S5  1  0.47609164  0.24410450  0.41286678  1.0
  S  S6  1  0.22236551  0.95281145  0.33157809  1.0
  S  S7  1  0.55730238  0.60635567  0.86533997  1.0
  S  S8  1  0.68640444  0.23116175  0.02907591  1.0
