# generated using pymatgen
data_Cs2CeAgBr6
_symmetry_space_group_name_H-M   'P 1'
_cell_length_a   8.86561584
_cell_length_b   6.77261305
_cell_length_c   7.16442299
_cell_angle_alpha   57.85102844
_cell_angle_beta   68.85800934
_cell_angle_gamma   60.63792038
_symmetry_Int_Tables_number   1
_chemical_formula_structural   Cs2CeAgBr6
_chemical_formula_sum   'Cs2 Ce1 Ag1 Br6'
_cell_volume   314.51379613
_cell_formula_units_Z   1
loop_
 _symmetry_equiv_pos_site_id
 _symmetry_equiv_pos_as_xyz
  1  'x, y, z'
loop_
 _atom_site_type_symbol
 _atom_site_label
 _atom_site_symmetry_multiplicity
 _atom_site_fract_x
 _atom_site_fract_y
 _atom_site_fract_z
 _atom_site_occupancy
  Cs  Cs1  1  0.73570222  0.74452841  0.74571586  1.0
  Cs  Cs2  1  0.28146660  0.44393104  0.36175841  1.0
  Ce  Ce1  1  0.60081565  0.52548993  0.51493859  1.0
  Ag  Ag1  1  0.00000000  0.00000000  0.00000000  1.0
  Br  Br1  1  0.71673918  0.29546595  0.27679956  1.0
  Br  Br2  1  0.17090645  0.21022317  0.86057347  1.0
  Br  Br3  1  0.41368270  0.68099630  0.80023038  1.0
  Br  Br4  1  0.20484334  0.83245850  0.21542722  1.0
  Br  Br5  1  0.70517403  0.21378610  0.81829035  1.0
  Br  Br6  1  0.81185502  0.72254145  0.25493422  1.0
