# generated using pymatgen
data_Cs2Hf2Br5
_symmetry_space_group_name_H-M   'P 1'
_cell_length_a   7.21817776
_cell_length_b   8.55559680
_cell_length_c   10.22303650
_cell_angle_alpha   55.66231493
_cell_angle_beta   65.24519241
_cell_angle_gamma   54.79249620
_symmetry_Int_Tables_number   1
_chemical_formula_structural   Cs2Hf2Br5
_chemical_formula_sum   'Cs2 Hf2 Br5'
_cell_volume   421.83235789
_cell_formula_units_Z   1
loop_
 _symmetry_equiv_pos_site_id
 _symmetry_equiv_pos_as_xyz
  1  'x, y, z'
loop_
 _atom_site_type_symbol
 _atom_site_label
 _atom_site_symmetry_multiplicity
 _atom_site_fract_x
 _atom_site_fract_y
 _atom_site_fract_z
 _atom_site_occupancy
  Cs  Cs0  1  0.26308105  0.17017053  0.24569018  1.0
  Cs  Cs1  1  0.79130087  0.71436779  0.68162648  1.0
  Hf  Hf2  1  0.98008988  0.04080687  0.97482023  1.0
  Hf  Hf3  1  0.69970518  0.17967656  0.78604594  1.0
  Br  Br4  1  0.26324702  0.22017157  0.86915853  1.0
  Br  Br5  1  0.82007355  0.78439724  0.04211488  1.0
  Br  Br6  1  0.59124409  0.54898916  0.53295061  1.0
  Br  Br7  1  0.15144356  0.99553450  0.69839574  1.0
  Br  Br8  1  0.81471086  0.08343858  0.24714693  1.0
