# generated using pymatgen
data_Cs2IrF6
_symmetry_space_group_name_H-M   'P 1'
_cell_length_a   7.94886398
_cell_length_b   5.95190334
_cell_length_c   5.07806873
_cell_angle_alpha   81.83347321
_cell_angle_beta   96.98916626
_cell_angle_gamma   122.50781250
_symmetry_Int_Tables_number   1
_chemical_formula_structural   Cs2IrF6
_chemical_formula_sum   'Cs2 Ir1 F6'
_cell_volume   200.25477691
_cell_formula_units_Z   1
loop_
 _symmetry_equiv_pos_site_id
 _symmetry_equiv_pos_as_xyz
  1  'x, y, z'
loop_
 _atom_site_type_symbol
 _atom_site_label
 _atom_site_symmetry_multiplicity
 _atom_site_fract_x
 _atom_site_fract_y
 _atom_site_fract_z
 _atom_site_occupancy
  Cs  Cs1  1  0.80673730  0.17587709  0.18515527  1.0
  Cs  Cs2  1  0.27231735  0.69167548  0.67502815  1.0
  Ir  Ir1  1  0.00000000  0.93616951  0.54907769  1.0
  F  F1  1  0.37321562  0.13967511  0.84060097  1.0
  F  F2  1  0.75288224  0.64240229  0.49538180  1.0
  F  F3  1  0.62432092  0.73121047  0.19361994  1.0
  F  F4  1  0.87268090  0.15100622  0.71207988  1.0
  F  F5  1  0.15801880  0.47926691  0.39953375  1.0
  F  F6  1  0.00000000  0.65983033  0.22047555  1.0
