# generated using pymatgen
data_Cs2InHBr6
_symmetry_space_group_name_H-M   'P 1'
_cell_length_a   7.84480047
_cell_length_b   5.99811172
_cell_length_c   6.64963150
_cell_angle_alpha   74.63652039
_cell_angle_beta   61.90809250
_cell_angle_gamma   65.56702423
_symmetry_Int_Tables_number   1
_chemical_formula_structural   Cs2InHBr6
_chemical_formula_sum   'Cs2 In1 H1 Br6'
_cell_volume   250.35035261
_cell_formula_units_Z   1
loop_
 _symmetry_equiv_pos_site_id
 _symmetry_equiv_pos_as_xyz
  1  'x, y, z'
loop_
 _atom_site_type_symbol
 _atom_site_label
 _atom_site_symmetry_multiplicity
 _atom_site_fract_x
 _atom_site_fract_y
 _atom_site_fract_z
 _atom_site_occupancy
  Cs  Cs1  1  0.71512556  0.73708224  0.72611439  1.0
  Cs  Cs2  1  0.24039343  0.27177778  0.24372894  1.0
  In  In1  1  0.00000000  0.00000000  0.00000000  1.0
  H  H1  1  0.60528588  0.50745809  0.46473187  1.0
  Br  Br1  1  0.64929372  0.20714557  0.21598351  1.0
  Br  Br2  1  0.21914554  0.13921106  0.80186838  1.0
  Br  Br3  1  0.15790433  0.61947733  0.75291300  1.0
  Br  Br4  1  0.22700626  0.69986218  0.26917565  1.0
  Br  Br5  1  0.71044755  0.24761161  0.59031540  1.0
  Br  Br6  1  0.77463132  0.81527805  0.28639242  1.0
