# generated using pymatgen
data_Cs2KYCl6
_symmetry_space_group_name_H-M   'P 1'
_cell_length_a   7.97813654
_cell_length_b   9.18521786
_cell_length_c   8.97919655
_cell_angle_alpha   70.01270294
_cell_angle_beta   65.52088165
_cell_angle_gamma   60.73051071
_symmetry_Int_Tables_number   1
_chemical_formula_structural   Cs2KYCl6
_chemical_formula_sum   'Cs2 K1 Y1 Cl6'
_cell_volume   514.30600967
_cell_formula_units_Z   1
loop_
 _symmetry_equiv_pos_site_id
 _symmetry_equiv_pos_as_xyz
  1  'x, y, z'
loop_
 _atom_site_type_symbol
 _atom_site_label
 _atom_site_symmetry_multiplicity
 _atom_site_fract_x
 _atom_site_fract_y
 _atom_site_fract_z
 _atom_site_occupancy
  Cs  Cs1  1  0.63498545  0.69067049  0.63608319  1.0
  Cs  Cs2  1  0.23743936  0.32634342  0.24482751  1.0
  K  K1  1  0.47845906  0.54203659  0.47886172  1.0
  Y  Y1  1  0.00000000  0.00000000  0.00000000  1.0
  Cl  Cl1  1  0.66312104  0.27354217  0.22217762  1.0
  Cl  Cl2  1  0.22089562  0.15172219  0.70833200  1.0
  Cl  Cl3  1  0.21709409  0.71235776  0.73921144  1.0
  Cl  Cl4  1  0.25555247  0.70038736  0.30857494  1.0
  Cl  Cl5  1  0.75477433  0.29515338  0.58944637  1.0
  Cl  Cl6  1  0.84768134  0.75665313  0.25353336  1.0
