# generated using pymatgen
data_Cs2KTbCl6
_symmetry_space_group_name_H-M   'P 1'
_cell_length_a   11.50789042
_cell_length_b   11.01870016
_cell_length_c   10.35429285
_cell_angle_alpha   54.60614731
_cell_angle_beta   52.49759931
_cell_angle_gamma   51.47925190
_symmetry_Int_Tables_number   1
_chemical_formula_structural   Cs2KTbCl6
_chemical_formula_sum   'Cs2 K1 Tb1 Cl6'
_cell_volume   771.44429213
_cell_formula_units_Z   1
loop_
 _symmetry_equiv_pos_site_id
 _symmetry_equiv_pos_as_xyz
  1  'x, y, z'
loop_
 _atom_site_type_symbol
 _atom_site_label
 _atom_site_symmetry_multiplicity
 _atom_site_fract_x
 _atom_site_fract_y
 _atom_site_fract_z
 _atom_site_occupancy
  Cs  Cs0  1  0.71645075  0.74894915  0.70648659  1.0
  Cs  Cs1  1  0.08292980  0.58785860  0.84537821  1.0
  K  K2  1  0.93548989  0.07173034  0.20633975  1.0
  Tb  Tb3  1  0.56757464  0.87611610  0.56119754  1.0
  Cl  Cl4  1  0.81739425  0.36179901  0.19518407  1.0
  Cl  Cl5  1  0.19176697  0.31433497  0.22106294  1.0
  Cl  Cl6  1  0.43263102  0.60216387  0.56581247  1.0
  Cl  Cl7  1  0.20191739  0.01213360  0.15122410  1.0
  Cl  Cl8  1  0.72001023  0.32941412  0.67852456  1.0
  Cl  Cl9  1  0.64328652  0.77603016  0.28129306  1.0
