# generated using pymatgen
data_Cs2KGdCl6
_symmetry_space_group_name_H-M   'P 1'
_cell_length_a   7.96704367
_cell_length_b   7.90422155
_cell_length_c   8.08942275
_cell_angle_alpha   61.27369209
_cell_angle_beta   60.17979827
_cell_angle_gamma   61.01575749
_symmetry_Int_Tables_number   1
_chemical_formula_structural   Cs2KGdCl6
_chemical_formula_sum   'Cs2 K1 Gd1 Cl6'
_cell_volume   366.82782668
_cell_formula_units_Z   1
loop_
 _symmetry_equiv_pos_site_id
 _symmetry_equiv_pos_as_xyz
  1  'x, y, z'
loop_
 _atom_site_type_symbol
 _atom_site_label
 _atom_site_symmetry_multiplicity
 _atom_site_fract_x
 _atom_site_fract_y
 _atom_site_fract_z
 _atom_site_occupancy
  Cs  Cs0  1  0.76212690  0.75734932  0.73856779  1.0
  Cs  Cs1  1  0.28056955  0.25061944  0.21569116  1.0
  K  K2  1  0.52029887  0.49903456  0.47708869  1.0
  Gd  Gd3  1  0.02093705  0.99956067  0.97651682  1.0
  Cl  Cl4  1  0.75337487  0.15810098  0.27743226  1.0
  Cl  Cl5  1  0.18602589  0.29654298  0.79860559  1.0
  Cl  Cl6  1  0.28326334  0.84204563  0.67478003  1.0
  Cl  Cl7  1  0.28917605  0.76477801  0.17239565  1.0
  Cl  Cl8  1  0.75506491  0.23107881  0.77796462  1.0
  Cl  Cl9  1  0.85334841  0.70314405  0.15976592  1.0
