# generated using pymatgen
data_Cs2KAsF6
_symmetry_space_group_name_H-M   'P 1'
_cell_length_a   9.47625351
_cell_length_b   5.83629036
_cell_length_c   5.72273874
_cell_angle_alpha   56.79306793
_cell_angle_beta   68.58582306
_cell_angle_gamma   60.75430679
_symmetry_Int_Tables_number   1
_chemical_formula_structural   Cs2KAsF6
_chemical_formula_sum   'Cs2 K1 As1 F6'
_cell_volume   228.98995568
_cell_formula_units_Z   1
loop_
 _symmetry_equiv_pos_site_id
 _symmetry_equiv_pos_as_xyz
  1  'x, y, z'
loop_
 _atom_site_type_symbol
 _atom_site_label
 _atom_site_symmetry_multiplicity
 _atom_site_fract_x
 _atom_site_fract_y
 _atom_site_fract_z
 _atom_site_occupancy
  Cs  Cs1  1  0.81898558  0.70252466  0.54275584  1.0
  Cs  Cs2  1  0.22739720  0.17003003  0.36360678  1.0
  K  K1  1  0.30421904  0.58747524  0.42996094  1.0
  As  As1  1  0.00000000  0.00000000  0.00000000  1.0
  F  F1  1  0.65080845  0.19198480  0.28232300  1.0
  F  F2  1  0.21615008  0.28464079  0.80712295  1.0
  F  F3  1  0.17890310  0.70068258  0.84436774  1.0
  F  F4  1  0.35444811  0.73859584  0.19122061  1.0
  F  F5  1  0.75540328  0.23880050  0.84552610  1.0
  F  F6  1  0.75436598  0.69928741  0.20019858  1.0
