# generated using pymatgen
data_Cs2LiYI6
_symmetry_space_group_name_H-M   'P 1'
_cell_length_a   9.48822248
_cell_length_b   8.53168422
_cell_length_c   8.90064279
_cell_angle_alpha   66.77275497
_cell_angle_beta   56.25472107
_cell_angle_gamma   68.67802703
_symmetry_Int_Tables_number   1
_chemical_formula_structural   Cs2LiYI6
_chemical_formula_sum   'Cs2 Li1 Y1 I6'
_cell_volume   540.61872689
_cell_formula_units_Z   1
loop_
 _symmetry_equiv_pos_site_id
 _symmetry_equiv_pos_as_xyz
  1  'x, y, z'
loop_
 _atom_site_type_symbol
 _atom_site_label
 _atom_site_symmetry_multiplicity
 _atom_site_fract_x
 _atom_site_fract_y
 _atom_site_fract_z
 _atom_site_occupancy
  Cs  Cs0  1  0.79779329  0.77824668  0.58112559  1.0
  Cs  Cs1  1  0.28715750  0.21300649  0.26127612  1.0
  Li  Li2  1  0.38765740  0.45508354  0.52380610  1.0
  Y  Y3  1  0.90724158  0.06463210  0.95928712  1.0
  I  I4  1  0.72492797  0.27281111  0.24490442  1.0
  I  I5  1  0.22570489  0.20141899  0.81589147  1.0
  I  I6  1  0.14525123  0.76221392  0.81464530  1.0
  I  I7  1  0.26478916  0.65043516  0.29270060  1.0
  I  I8  1  0.79442713  0.26832552  0.67988931  1.0
  I  I9  1  0.64963743  0.83618227  0.22830031  1.0
