# generated using pymatgen
data_Cs2LiCrF6
_symmetry_space_group_name_H-M   'P 1'
_cell_length_a   6.40169764
_cell_length_b   5.56006384
_cell_length_c   5.49292326
_cell_angle_alpha   104.40053558
_cell_angle_beta   96.49254608
_cell_angle_gamma   117.71212006
_symmetry_Int_Tables_number   1
_chemical_formula_structural   Cs2LiCrF6
_chemical_formula_sum   'Cs2 Li1 Cr1 F6'
_cell_volume   161.57528512
_cell_formula_units_Z   1
loop_
 _symmetry_equiv_pos_site_id
 _symmetry_equiv_pos_as_xyz
  1  'x, y, z'
loop_
 _atom_site_type_symbol
 _atom_site_label
 _atom_site_symmetry_multiplicity
 _atom_site_fract_x
 _atom_site_fract_y
 _atom_site_fract_z
 _atom_site_occupancy
  Cs  Cs1  1  0.26689970  0.54990876  0.11481816  1.0
  Cs  Cs2  1  0.64955640  0.27641308  0.85182786  1.0
  Li  Li1  1  0.00000000  0.00000000  0.00000000  1.0
  Cr  Cr1  1  0.00000000  0.00000000  0.38006353  1.0
  F  F1  1  0.84399045  0.00000000  0.39325520  1.0
  F  F2  1  0.23626274  0.81227642  0.85790229  1.0
  F  F3  1  0.85535580  0.76379734  0.24338660  1.0
  F  F4  1  0.18691975  0.30986595  0.75389582  1.0
  F  F5  1  0.34157223  0.26573592  0.24010280  1.0
  F  F6  1  0.64773822  0.89979905  0.70221937  1.0
