# generated using pymatgen
data_Cs2LiHI6
_symmetry_space_group_name_H-M   'P 1'
_cell_length_a   9.44349716
_cell_length_b   8.68369894
_cell_length_c   9.32649229
_cell_angle_alpha   57.20536740
_cell_angle_beta   58.43798960
_cell_angle_gamma   49.90280642
_symmetry_Int_Tables_number   1
_chemical_formula_structural   Cs2LiHI6
_chemical_formula_sum   'Cs2 Li1 H1 I6'
_cell_volume   473.33172646
_cell_formula_units_Z   1
loop_
 _symmetry_equiv_pos_site_id
 _symmetry_equiv_pos_as_xyz
  1  'x, y, z'
loop_
 _atom_site_type_symbol
 _atom_site_label
 _atom_site_symmetry_multiplicity
 _atom_site_fract_x
 _atom_site_fract_y
 _atom_site_fract_z
 _atom_site_occupancy
  Cs  Cs0  1  0.79961974  0.56445064  0.65290718  1.0
  Cs  Cs1  1  0.27040673  0.19203954  0.15367717  1.0
  Li  Li2  1  0.55506864  0.38511993  0.37892555  1.0
  H  H3  1  0.96500579  0.92859534  0.17811638  1.0
  I  I4  1  0.71704387  0.18597246  0.13517103  1.0
  I  I5  1  0.36368697  0.15900437  0.69768568  1.0
  I  I6  1  0.11334008  0.93154473  0.67364033  1.0
  I  I7  1  0.19791249  0.68172481  0.21632480  1.0
  I  I8  1  0.74849234  0.03344275  0.69599120  1.0
  I  I9  1  0.70552262  0.61572509  0.27736409  1.0
