# generated using pymatgen
data_Cs2LuAgCl6
_symmetry_space_group_name_H-M   'P 1'
_cell_length_a   7.54072428
_cell_length_b   8.86117077
_cell_length_c   8.03750896
_cell_angle_alpha   60.37711334
_cell_angle_beta   79.94966888
_cell_angle_gamma   50.61248779
_symmetry_Int_Tables_number   1
_chemical_formula_structural   Cs2LuAgCl6
_chemical_formula_sum   'Cs2 Lu1 Ag1 Cl6'
_cell_volume   353.00599243
_cell_formula_units_Z   1
loop_
 _symmetry_equiv_pos_site_id
 _symmetry_equiv_pos_as_xyz
  1  'x, y, z'
loop_
 _atom_site_type_symbol
 _atom_site_label
 _atom_site_symmetry_multiplicity
 _atom_site_fract_x
 _atom_site_fract_y
 _atom_site_fract_z
 _atom_site_occupancy
  Cs  Cs1  1  0.64818752  0.76282799  0.68927771  1.0
  Cs  Cs2  1  0.24848440  0.16127360  0.20161095  1.0
  Lu  Lu1  1  0.00000000  0.00000000  0.00000000  1.0
  Ag  Ag1  1  0.42099190  0.46206552  0.54885715  1.0
  Cl  Cl1  1  0.65604067  0.23680940  0.36140448  1.0
  Cl  Cl2  1  0.36124516  0.37362486  0.65316939  1.0
  Cl  Cl3  1  0.24821305  0.78638482  0.74208736  1.0
  Cl  Cl4  1  0.41960907  0.69587898  0.27489194  1.0
  Cl  Cl5  1  0.65986633  0.29247642  0.78945667  1.0
  Cl  Cl6  1  0.72429067  0.65580851  0.35072541  1.0
