# generated using pymatgen
data_Cs2LiHCl6
_symmetry_space_group_name_H-M   'P 1'
_cell_length_a   6.75702156
_cell_length_b   7.73862120
_cell_length_c   8.08329661
_cell_angle_alpha   60.14237708
_cell_angle_beta   67.81846626
_cell_angle_gamma   69.23663566
_symmetry_Int_Tables_number   1
_chemical_formula_structural   Cs2LiHCl6
_chemical_formula_sum   'Cs2 Li1 H1 Cl6'
_cell_volume   332.06282883
_cell_formula_units_Z   1
loop_
 _symmetry_equiv_pos_site_id
 _symmetry_equiv_pos_as_xyz
  1  'x, y, z'
loop_
 _atom_site_type_symbol
 _atom_site_label
 _atom_site_symmetry_multiplicity
 _atom_site_fract_x
 _atom_site_fract_y
 _atom_site_fract_z
 _atom_site_occupancy
  Cs  Cs0  1  0.68112676  0.77169731  0.81916931  1.0
  Cs  Cs1  1  0.24835065  0.22522281  0.22730455  1.0
  Li  Li2  1  0.58688088  0.46389958  0.52302047  1.0
  H  H3  1  0.98028843  0.18371830  0.82504658  1.0
  Cl  Cl4  1  0.65998244  0.36979106  0.27519132  1.0
  Cl  Cl5  1  0.19259745  0.15495186  0.83098977  1.0
  Cl  Cl6  1  0.30581415  0.72996920  0.60132537  1.0
  Cl  Cl7  1  0.09219755  0.71488420  0.41847063  1.0
  Cl  Cl8  1  0.70048004  0.23084194  0.81175129  1.0
  Cl  Cl9  1  0.89813346  0.67847336  0.27881230  1.0
