# generated using pymatgen
data_Cs2NaInBr6
_symmetry_space_group_name_H-M   'P 1'
_cell_length_a   8.37799454
_cell_length_b   8.71175385
_cell_length_c   7.22053766
_cell_angle_alpha   58.33927536
_cell_angle_beta   63.42648697
_cell_angle_gamma   56.75405884
_symmetry_Int_Tables_number   1
_chemical_formula_structural   Cs2NaInBr6
_chemical_formula_sum   'Cs2 Na1 In1 Br6'
_cell_volume   365.60341631
_cell_formula_units_Z   1
loop_
 _symmetry_equiv_pos_site_id
 _symmetry_equiv_pos_as_xyz
  1  'x, y, z'
loop_
 _atom_site_type_symbol
 _atom_site_label
 _atom_site_symmetry_multiplicity
 _atom_site_fract_x
 _atom_site_fract_y
 _atom_site_fract_z
 _atom_site_occupancy
  Cs  Cs1  1  0.69865769  0.74008787  0.71219677  1.0
  Cs  Cs2  1  0.23145765  0.24816838  0.21156797  1.0
  Na  Na1  1  0.56671041  0.57596517  0.53464782  1.0
  In  In1  1  0.00000000  0.00000000  0.00000000  1.0
  Br  Br1  1  0.75953805  0.24111956  0.24723250  1.0
  Br  Br2  1  0.20340306  0.28972805  0.80718446  1.0
  Br  Br3  1  0.19682536  0.80084980  0.70478529  1.0
  Br  Br4  1  0.25132406  0.56696123  0.22205442  1.0
  Br  Br5  1  0.66002023  0.15034407  0.75396979  1.0
  Br  Br6  1  0.74258333  0.76029283  0.15740888  1.0
