# generated using pymatgen
data_Cs2NiO2
_symmetry_space_group_name_H-M   'P 1'
_cell_length_a   9.59847552
_cell_length_b   8.37142531
_cell_length_c   6.89868622
_cell_angle_alpha   147.79297676
_cell_angle_beta   148.01282502
_cell_angle_gamma   51.14482251
_symmetry_Int_Tables_number   1
_chemical_formula_structural   Cs2NiO2
_chemical_formula_sum   'Cs2 Ni1 O2'
_cell_volume   148.28544746
_cell_formula_units_Z   1
loop_
 _symmetry_equiv_pos_site_id
 _symmetry_equiv_pos_as_xyz
  1  'x, y, z'
loop_
 _atom_site_type_symbol
 _atom_site_label
 _atom_site_symmetry_multiplicity
 _atom_site_fract_x
 _atom_site_fract_y
 _atom_site_fract_z
 _atom_site_occupancy
  Cs  Cs0  1  0.68232171  0.34687141  0.15470804  1.0
  Cs  Cs1  1  0.50568485  0.62342704  0.79638724  1.0
  Ni  Ni2  1  0.10933408  0.96530986  0.06081247  1.0
  O  O3  1  0.15621336  0.08211194  0.00326655  1.0
  O  O4  1  0.61640559  0.95232857  0.98482570  1.0
