# generated using pymatgen
data_Cs2NaInCl6
_symmetry_space_group_name_H-M   'P 1'
_cell_length_a   7.61154245
_cell_length_b   7.60173618
_cell_length_c   7.58701369
_cell_angle_alpha   60.03946414
_cell_angle_beta   59.91096188
_cell_angle_gamma   60.16820112
_symmetry_Int_Tables_number   1
_chemical_formula_structural   Cs2NaInCl6
_chemical_formula_sum   'Cs2 Na1 In1 Cl6'
_cell_volume   310.68912297
_cell_formula_units_Z   1
loop_
 _symmetry_equiv_pos_site_id
 _symmetry_equiv_pos_as_xyz
  1  'x, y, z'
loop_
 _atom_site_type_symbol
 _atom_site_label
 _atom_site_symmetry_multiplicity
 _atom_site_fract_x
 _atom_site_fract_y
 _atom_site_fract_z
 _atom_site_occupancy
  Cs  Cs0  1  0.72396003  0.73375121  0.77826901  1.0
  Cs  Cs1  1  0.22364096  0.23177926  0.27975305  1.0
  Na  Na2  1  0.47614305  0.48242664  0.52700048  1.0
  In  In3  1  0.97395439  0.98379568  0.02733862  1.0
  Cl  Cl4  1  0.74976979  0.22895858  0.25718806  1.0
  Cl  Cl5  1  0.22572346  0.20732263  0.77962275  1.0
  Cl  Cl6  1  0.19635029  0.74023254  0.79604974  1.0
  Cl  Cl7  1  0.21101757  0.73959086  0.26465200  1.0
  Cl  Cl8  1  0.73435879  0.22840006  0.79115073  1.0
  Cl  Cl9  1  0.72129999  0.76076928  0.27337434  1.0
