# generated using pymatgen
data_Cs2NaUCl6
_symmetry_space_group_name_H-M   'P 1'
_cell_length_a   8.78078842
_cell_length_b   6.43953514
_cell_length_c   7.85116482
_cell_angle_alpha   51.80316925
_cell_angle_beta   59.19510651
_cell_angle_gamma   57.04417419
_symmetry_Int_Tables_number   1
_chemical_formula_structural   Cs2NaUCl6
_chemical_formula_sum   'Cs2 Na1 U1 Cl6'
_cell_volume   282.16128829
_cell_formula_units_Z   1
loop_
 _symmetry_equiv_pos_site_id
 _symmetry_equiv_pos_as_xyz
  1  'x, y, z'
loop_
 _atom_site_type_symbol
 _atom_site_label
 _atom_site_symmetry_multiplicity
 _atom_site_fract_x
 _atom_site_fract_y
 _atom_site_fract_z
 _atom_site_occupancy
  Cs  Cs1  1  0.79293162  0.81929487  0.81403685  1.0
  Cs  Cs2  1  0.40474886  0.27212155  0.30121112  1.0
  Na  Na1  1  0.30353191  0.51388109  0.54788935  1.0
  U  U1  1  0.00000000  0.00000000  0.00000000  1.0
  Cl  Cl1  1  0.76308680  0.22300160  0.65847033  1.0
  Cl  Cl2  1  0.31892234  0.78163606  0.26213717  1.0
  Cl  Cl3  1  0.77499056  0.29458019  0.16387984  1.0
  Cl  Cl4  1  0.27209574  0.86573517  0.76663160  1.0
  Cl  Cl5  1  0.16776979  0.18988860  0.79175580  1.0
  Cl  Cl6  1  0.59783334  0.57337087  0.29112443  1.0
