# generated using pymatgen
data_Cs2NpBr6
_symmetry_space_group_name_H-M   'P 1'
_cell_length_a   8.09084511
_cell_length_b   8.70009613
_cell_length_c   7.92021847
_cell_angle_alpha   74.09104156
_cell_angle_beta   55.77046967
_cell_angle_gamma   57.71707535
_symmetry_Int_Tables_number   1
_chemical_formula_structural   Cs2NpBr6
_chemical_formula_sum   'Cs2 Np1 Br6'
_cell_volume   389.41753478
_cell_formula_units_Z   1
loop_
 _symmetry_equiv_pos_site_id
 _symmetry_equiv_pos_as_xyz
  1  'x, y, z'
loop_
 _atom_site_type_symbol
 _atom_site_label
 _atom_site_symmetry_multiplicity
 _atom_site_fract_x
 _atom_site_fract_y
 _atom_site_fract_z
 _atom_site_occupancy
  Cs  Cs1  1  0.40614963  0.30956832  0.23400956  1.0
  Cs  Cs2  1  0.75455117  0.61551106  0.82482350  1.0
  Np  Np1  1  0.00000000  0.00000000  0.00000000  1.0
  Br  Br1  1  0.23955047  0.66149557  0.71534646  1.0
  Br  Br2  1  0.89184266  0.37419975  0.34283984  1.0
  Br  Br3  1  0.55855197  0.00000000  0.84037924  1.0
  Br  Br4  1  0.33128446  0.80095226  0.23032314  1.0
  Br  Br5  1  0.25730962  0.23873955  0.65715104  1.0
  Br  Br6  1  0.63035154  0.79880738  0.26946625  1.0
