# generated using pymatgen
data_Cs2PdCl4
_symmetry_space_group_name_H-M   'P 1'
_cell_length_a   8.43692112
_cell_length_b   5.68946171
_cell_length_c   4.62137985
_cell_angle_alpha   98.60062408
_cell_angle_beta   80.01545715
_cell_angle_gamma   101.16068268
_symmetry_Int_Tables_number   1
_chemical_formula_structural   Cs2PdCl4
_chemical_formula_sum   'Cs2 Pd1 Cl4'
_cell_volume   212.79196921
_cell_formula_units_Z   1
loop_
 _symmetry_equiv_pos_site_id
 _symmetry_equiv_pos_as_xyz
  1  'x, y, z'
loop_
 _atom_site_type_symbol
 _atom_site_label
 _atom_site_symmetry_multiplicity
 _atom_site_fract_x
 _atom_site_fract_y
 _atom_site_fract_z
 _atom_site_occupancy
  Cs  Cs1  1  0.00000000  0.51648557  0.51118684  1.0
  Cs  Cs2  1  0.42501584  0.00000000  0.64136934  1.0
  Pd  Pd1  1  0.00000000  0.00000000  0.00000000  1.0
  Cl  Cl1  1  0.20041993  0.00000000  0.00000000  1.0
  Cl  Cl2  1  0.76572514  0.74827194  0.00000000  1.0
  Cl  Cl3  1  0.10787055  0.68692553  0.00000000  1.0
  Cl  Cl4  1  0.74578762  0.00000000  0.00000000  1.0
