# generated using pymatgen
data_Cs2SbO2
_symmetry_space_group_name_H-M   'P 1'
_cell_length_a   7.25284951
_cell_length_b   10.40112759
_cell_length_c   8.58084769
_cell_angle_alpha   78.52356586
_cell_angle_beta   76.12533415
_cell_angle_gamma   50.58066593
_symmetry_Int_Tables_number   1
_chemical_formula_structural   Cs2SbO2
_chemical_formula_sum   'Cs4 Sb2 O4'
_cell_volume   484.53496846
_cell_formula_units_Z   2
loop_
 _symmetry_equiv_pos_site_id
 _symmetry_equiv_pos_as_xyz
  1  'x, y, z'
loop_
 _atom_site_type_symbol
 _atom_site_label
 _atom_site_symmetry_multiplicity
 _atom_site_fract_x
 _atom_site_fract_y
 _atom_site_fract_z
 _atom_site_occupancy
  Cs  Cs0  1  0.90507403  0.94223396  0.90705859  1.0
  Cs  Cs1  1  0.85677729  0.17461799  0.39857894  1.0
  Cs  Cs2  1  0.14257367  0.59788488  0.29325689  1.0
  Cs  Cs3  1  0.83718410  0.53815941  0.79026412  1.0
  Sb  Sb4  1  0.47170118  0.37904042  0.74828650  1.0
  Sb  Sb5  1  0.40227777  0.82050259  0.14432345  1.0
  O  O6  1  0.23285842  0.62496907  0.75862023  1.0
  O  O7  1  0.49764428  0.60590853  0.09778305  1.0
  O  O8  1  0.44813671  0.28918556  0.97503410  1.0
  O  O9  1  0.79754153  0.31083762  0.67591012  1.0
