# generated using pymatgen
data_Cs2SnBr6
_symmetry_space_group_name_H-M   'P 1'
_cell_length_a   7.94974518
_cell_length_b   8.92768192
_cell_length_c   8.22419930
_cell_angle_alpha   44.52045059
_cell_angle_beta   53.96996307
_cell_angle_gamma   50.82357407
_symmetry_Int_Tables_number   1
_chemical_formula_structural   Cs2SnBr6
_chemical_formula_sum   'Cs2 Sn1 Br6'
_cell_volume   306.89938137
_cell_formula_units_Z   1
loop_
 _symmetry_equiv_pos_site_id
 _symmetry_equiv_pos_as_xyz
  1  'x, y, z'
loop_
 _atom_site_type_symbol
 _atom_site_label
 _atom_site_symmetry_multiplicity
 _atom_site_fract_x
 _atom_site_fract_y
 _atom_site_fract_z
 _atom_site_occupancy
  Cs  Cs1  1  0.24856630  0.22686449  0.20682400  1.0
  Cs  Cs2  1  0.83248508  0.62189484  0.79308391  1.0
  Sn  Sn1  1  0.00000000  0.00000000  0.00000000  1.0
  Br  Br1  1  0.82891786  0.25245273  0.39773023  1.0
  Br  Br2  1  0.26976573  0.85708010  0.75198114  1.0
  Br  Br3  1  0.15241313  0.19675744  0.72822207  1.0
  Br  Br4  1  0.77622825  0.41575676  0.83419991  1.0
  Br  Br5  1  0.63052225  0.71854484  0.27349472  1.0
  Br  Br6  1  0.20361999  0.72814310  0.19048843  1.0
