# generated using pymatgen
data_Cs2TiO3
_symmetry_space_group_name_H-M   'P 1'
_cell_length_a   7.93971109
_cell_length_b   7.11195087
_cell_length_c   5.64932346
_cell_angle_alpha   88.56645966
_cell_angle_beta   76.70391846
_cell_angle_gamma   119.87945557
_symmetry_Int_Tables_number   1
_chemical_formula_structural   Cs2TiO3
_chemical_formula_sum   'Cs4 Ti2 O6'
_cell_volume   265.47366000
_cell_formula_units_Z   2
loop_
 _symmetry_equiv_pos_site_id
 _symmetry_equiv_pos_as_xyz
  1  'x, y, z'
loop_
 _atom_site_type_symbol
 _atom_site_label
 _atom_site_symmetry_multiplicity
 _atom_site_fract_x
 _atom_site_fract_y
 _atom_site_fract_z
 _atom_site_occupancy
  Cs  Cs1  1  0.54071999  0.25696090  0.75229645  1.0
  Cs  Cs2  1  0.74715710  0.49999085  0.32332033  1.0
  Cs  Cs3  1  0.54678911  0.82238346  0.23392540  1.0
  Cs  Cs4  1  0.11125320  0.43499583  0.86559510  1.0
  Ti  Ti1  1  0.00000000  0.00000000  0.26439428  1.0
  Ti  Ti2  1  0.92143470  0.89894915  0.68777198  1.0
  O  O1  1  0.87283540  0.11120522  0.00000000  1.0
  O  O2  1  0.93040258  0.10328633  0.57588279  1.0
  O  O3  1  0.53312945  0.75003690  0.44918749  1.0
  O  O4  1  0.69400996  0.20213132  0.32289907  1.0
  O  O5  1  0.10387376  0.77011788  0.00000000  1.0
  O  O6  1  0.10691085  0.89031327  0.67146271  1.0
