# generated using pymatgen
data_Cs2TeCl6
_symmetry_space_group_name_H-M   'P 1'
_cell_length_a   6.10724783
_cell_length_b   8.50721741
_cell_length_c   8.51693439
_cell_angle_alpha   71.30932617
_cell_angle_beta   73.02891541
_cell_angle_gamma   73.43972778
_symmetry_Int_Tables_number   1
_chemical_formula_structural   Cs2TeCl6
_chemical_formula_sum   'Cs2 Te1 Cl6'
_cell_volume   391.85640308
_cell_formula_units_Z   1
loop_
 _symmetry_equiv_pos_site_id
 _symmetry_equiv_pos_as_xyz
  1  'x, y, z'
loop_
 _atom_site_type_symbol
 _atom_site_label
 _atom_site_symmetry_multiplicity
 _atom_site_fract_x
 _atom_site_fract_y
 _atom_site_fract_z
 _atom_site_occupancy
  Cs  Cs1  1  0.32813874  0.20125169  0.34197319  1.0
  Cs  Cs2  1  0.76615322  0.82004142  0.67797202  1.0
  Te  Te1  1  0.00000000  0.00000000  0.00000000  1.0
  Cl  Cl1  1  0.10030034  0.49759540  0.89604402  1.0
  Cl  Cl2  1  0.25849473  0.68546224  0.26505303  1.0
  Cl  Cl3  1  0.63755882  0.17812225  0.65629852  1.0
  Cl  Cl4  1  0.65499043  0.18360585  0.13216028  1.0
  Cl  Cl5  1  0.88172388  0.68942183  0.32710439  1.0
  Cl  Cl6  1  0.24731725  0.38452706  0.77799892  1.0
