# generated using pymatgen
data_Cs4Sb2O5
_symmetry_space_group_name_H-M   'P 1'
_cell_length_a   7.23359393
_cell_length_b   6.42023110
_cell_length_c   8.09996389
_cell_angle_alpha   81.58974295
_cell_angle_beta   77.27155974
_cell_angle_gamma   64.12283475
_symmetry_Int_Tables_number   1
_chemical_formula_structural   Cs4Sb2O5
_chemical_formula_sum   'Cs4 Sb2 O5'
_cell_volume   329.59923440
_cell_formula_units_Z   1
loop_
 _symmetry_equiv_pos_site_id
 _symmetry_equiv_pos_as_xyz
  1  'x, y, z'
loop_
 _atom_site_type_symbol
 _atom_site_label
 _atom_site_symmetry_multiplicity
 _atom_site_fract_x
 _atom_site_fract_y
 _atom_site_fract_z
 _atom_site_occupancy
  Cs  Cs0  1  0.97996878  0.97824679  0.10263210  1.0
  Cs  Cs1  1  0.11232325  0.01034779  0.63027803  1.0
  Cs  Cs2  1  0.33839743  0.25851460  0.20397266  1.0
  Cs  Cs3  1  0.69527410  0.70294425  0.81445132  1.0
  Sb  Sb4  1  0.43789838  0.34938398  0.76191665  1.0
  Sb  Sb5  1  0.62154302  0.54321802  0.37407578  1.0
  O  O6  1  0.29505366  0.61886751  0.89737657  1.0
  O  O7  1  0.91219134  0.34296260  0.35551557  1.0
  O  O8  1  0.59554946  0.82840293  0.44245478  1.0
  O  O9  1  0.68802168  0.17316940  0.86368084  1.0
  O  O10  1  0.27510480  0.17258033  0.85170921  1.0
