# generated using pymatgen
data_CsBS2
_symmetry_space_group_name_H-M   'P 1'
_cell_length_a   5.94863129
_cell_length_b   5.90904331
_cell_length_c   10.20979214
_cell_angle_alpha   71.89105225
_cell_angle_beta   87.88405609
_cell_angle_gamma   92.92443085
_symmetry_Int_Tables_number   1
_chemical_formula_structural   CsBS2
_chemical_formula_sum   'Cs2 B2 S4'
_cell_volume   340.13390252
_cell_formula_units_Z   2
loop_
 _symmetry_equiv_pos_site_id
 _symmetry_equiv_pos_as_xyz
  1  'x, y, z'
loop_
 _atom_site_type_symbol
 _atom_site_label
 _atom_site_symmetry_multiplicity
 _atom_site_fract_x
 _atom_site_fract_y
 _atom_site_fract_z
 _atom_site_occupancy
  Cs  Cs0  1  0.12112570  0.00314816  0.74101233  1.0
  Cs  Cs1  1  0.85657964  0.86301315  0.37908360  1.0
  B  B2  1  0.60509865  0.67002914  0.76756574  1.0
  B  B3  1  0.59265916  0.42867230  0.09713437  1.0
  S  S4  1  0.81082509  0.80011076  0.82041236  1.0
  S  S5  1  0.40632973  0.42360913  0.34088165  1.0
  S  S6  1  0.25701964  0.20558602  0.00079880  1.0
  S  S7  1  0.52690161  0.75744815  0.00503358  1.0
