# generated using pymatgen
data_CsDyS2
_symmetry_space_group_name_H-M   'P 1'
_cell_length_a   9.38935570
_cell_length_b   12.46510424
_cell_length_c   12.13264701
_cell_angle_alpha   17.08588445
_cell_angle_beta   30.86318732
_cell_angle_gamma   35.85027889
_symmetry_Int_Tables_number   1
_chemical_formula_structural   CsDyS2
_chemical_formula_sum   'Cs1 Dy1 S2'
_cell_volume   213.55251908
_cell_formula_units_Z   1
loop_
 _symmetry_equiv_pos_site_id
 _symmetry_equiv_pos_as_xyz
  1  'x, y, z'
loop_
 _atom_site_type_symbol
 _atom_site_label
 _atom_site_symmetry_multiplicity
 _atom_site_fract_x
 _atom_site_fract_y
 _atom_site_fract_z
 _atom_site_occupancy
  Cs  Cs0  1  0.96642052  0.03441496  0.00499235  1.0
  Dy  Dy1  1  0.91487861  0.60035231  0.92828439  1.0
  S  S2  1  0.68652848  0.50819158  0.55497514  1.0
  S  S3  1  0.92724073  0.27860385  0.19289421  1.0
