# generated using pymatgen
data_CsHoO2
_symmetry_space_group_name_H-M   'P 1'
_cell_length_a   4.62574863
_cell_length_b   4.02385902
_cell_length_c   11.71796703
_cell_angle_alpha   84.82238007
_cell_angle_beta   90.71740723
_cell_angle_gamma   125.09614563
_symmetry_Int_Tables_number   1
_chemical_formula_structural   CsHoO2
_chemical_formula_sum   'Cs2 Ho2 O4'
_cell_volume   177.52002097
_cell_formula_units_Z   2
loop_
 _symmetry_equiv_pos_site_id
 _symmetry_equiv_pos_as_xyz
  1  'x, y, z'
loop_
 _atom_site_type_symbol
 _atom_site_label
 _atom_site_symmetry_multiplicity
 _atom_site_fract_x
 _atom_site_fract_y
 _atom_site_fract_z
 _atom_site_occupancy
  Cs  Cs1  1  0.28170109  0.62511027  0.80020297  1.0
  Cs  Cs2  1  0.55762470  0.46116996  0.27454939  1.0
  Ho  Ho1  1  0.00000000  0.00000000  0.00000000  1.0
  Ho  Ho2  1  0.00000000  0.00000000  0.46750879  1.0
  O  O1  1  0.27199471  0.56570476  0.49145353  1.0
  O  O2  1  0.27288249  0.71970618  0.00000000  1.0
  O  O3  1  0.46867087  0.42639515  0.55549204  1.0
  O  O4  1  0.48876768  0.36804393  0.95535648  1.0
