# generated using pymatgen
data_CsInF3
_symmetry_space_group_name_H-M   'P 1'
_cell_length_a   7.22278810
_cell_length_b   7.71802090
_cell_length_c   6.04162142
_cell_angle_alpha   62.23623900
_cell_angle_beta   56.25689831
_cell_angle_gamma   43.87188780
_symmetry_Int_Tables_number   1
_chemical_formula_structural   CsInF3
_chemical_formula_sum   'Cs2 In2 F6'
_cell_volume   192.83903700
_cell_formula_units_Z   2
loop_
 _symmetry_equiv_pos_site_id
 _symmetry_equiv_pos_as_xyz
  1  'x, y, z'
loop_
 _atom_site_type_symbol
 _atom_site_label
 _atom_site_symmetry_multiplicity
 _atom_site_fract_x
 _atom_site_fract_y
 _atom_site_fract_z
 _atom_site_occupancy
  Cs  Cs0  1  0.47069083  0.97133531  0.17657129  1.0
  Cs  Cs1  1  0.03620043  0.46999211  0.65251783  1.0
  In  In2  1  0.41886131  0.56602040  0.76840170  1.0
  In  In3  1  0.91774512  0.04039893  0.23212887  1.0
  F  F4  1  0.24801027  0.96087752  0.84513693  1.0
  F  F5  1  0.23681949  0.73953297  0.38899447  1.0
  F  F6  1  0.55276889  0.28942587  0.14109445  1.0
  F  F7  1  0.98880481  0.74801572  0.15066321  1.0
  F  F8  1  0.64928679  0.07294137  0.62850128  1.0
  F  F9  1  0.89372668  0.33164204  0.20878258  1.0
