# generated using pymatgen
data_CsLaS2
_symmetry_space_group_name_H-M   'P 1'
_cell_length_a   8.45771090
_cell_length_b   8.42502868
_cell_length_c   8.45381688
_cell_angle_alpha   29.87322714
_cell_angle_beta   29.83048210
_cell_angle_gamma   29.87155106
_symmetry_Int_Tables_number   1
_chemical_formula_structural   CsLaS2
_chemical_formula_sum   'Cs1 La1 S2'
_cell_volume   132.22823708
_cell_formula_units_Z   1
loop_
 _symmetry_equiv_pos_site_id
 _symmetry_equiv_pos_as_xyz
  1  'x, y, z'
loop_
 _atom_site_type_symbol
 _atom_site_label
 _atom_site_symmetry_multiplicity
 _atom_site_fract_x
 _atom_site_fract_y
 _atom_site_fract_z
 _atom_site_occupancy
  Cs  Cs0  1  0.96638882  0.95359238  0.96542402  1.0
  La  La1  1  0.47024290  0.44744313  0.46881266  1.0
  S  S2  1  0.19640548  0.18096366  0.19617959  1.0
  S  S3  1  0.74295894  0.71665000  0.74064460  1.0
