# generated using pymatgen
data_CsNdO2
_symmetry_space_group_name_H-M   'P 1'
_cell_length_a   5.42998729
_cell_length_b   3.57076777
_cell_length_c   19.21927431
_cell_angle_alpha   93.51802073
_cell_angle_beta   91.35067907
_cell_angle_gamma   124.99127380
_symmetry_Int_Tables_number   1
_chemical_formula_structural   CsNdO2
_chemical_formula_sum   'Cs2 Nd2 O4'
_cell_volume   303.92387109
_cell_formula_units_Z   2
loop_
 _symmetry_equiv_pos_site_id
 _symmetry_equiv_pos_as_xyz
  1  'x, y, z'
loop_
 _atom_site_type_symbol
 _atom_site_label
 _atom_site_symmetry_multiplicity
 _atom_site_fract_x
 _atom_site_fract_y
 _atom_site_fract_z
 _atom_site_occupancy
  Cs  Cs0  1  0.71027008  0.35242429  0.25270190  1.0
  Cs  Cs1  1  0.20770508  0.51649885  0.81021656  1.0
  Nd  Nd2  1  0.99326601  0.99389458  0.64548749  1.0
  Nd  Nd3  1  0.00324348  0.99665000  0.98143388  1.0
  O  O4  1  0.27866927  0.59784962  0.14701096  1.0
  O  O5  1  0.52615269  0.54154139  0.94732663  1.0
  O  O6  1  0.38207976  0.54531662  0.65402327  1.0
  O  O7  1  0.88896519  0.22682961  0.37244735  1.0
