# generated using pymatgen
data_CsRuF6
_symmetry_space_group_name_H-M   'P 1'
_cell_length_a   4.89432621
_cell_length_b   3.80469251
_cell_length_c   7.08535194
_cell_angle_alpha   96.25488281
_cell_angle_beta   95.91860199
_cell_angle_gamma   92.49279785
_symmetry_Int_Tables_number   1
_chemical_formula_structural   CsRuF6
_chemical_formula_sum   'Cs1 Ru1 F6'
_cell_volume   130.25466699
_cell_formula_units_Z   1
loop_
 _symmetry_equiv_pos_site_id
 _symmetry_equiv_pos_as_xyz
  1  'x, y, z'
loop_
 _atom_site_type_symbol
 _atom_site_label
 _atom_site_symmetry_multiplicity
 _atom_site_fract_x
 _atom_site_fract_y
 _atom_site_fract_z
 _atom_site_occupancy
  Cs  Cs1  1  0.57460994  0.53404129  0.51642984  1.0
  Ru  Ru1  1  0.00000000  0.00000000  0.00000000  1.0
  F  F1  1  0.12557769  0.27276278  0.88013363  1.0
  F  F2  1  0.19489011  0.91704679  0.36213255  1.0
  F  F3  1  0.86603242  0.00000000  0.66363579  1.0
  F  F4  1  0.70559472  0.81523407  0.16518125  1.0
  F  F5  1  0.22591013  0.75105262  0.82842815  1.0
  F  F6  1  0.92451298  0.26957977  0.30975455  1.0
