# generated using pymatgen
data_CsTeAu
_symmetry_space_group_name_H-M   'P 1'
_cell_length_a   5.57887840
_cell_length_b   9.15499592
_cell_length_c   5.86064720
_cell_angle_alpha   87.19987488
_cell_angle_beta   94.04557037
_cell_angle_gamma   89.52220917
_symmetry_Int_Tables_number   1
_chemical_formula_structural   CsTeAu
_chemical_formula_sum   'Cs2 Te2 Au2'
_cell_volume   298.20704297
_cell_formula_units_Z   2
loop_
 _symmetry_equiv_pos_site_id
 _symmetry_equiv_pos_as_xyz
  1  'x, y, z'
loop_
 _atom_site_type_symbol
 _atom_site_label
 _atom_site_symmetry_multiplicity
 _atom_site_fract_x
 _atom_site_fract_y
 _atom_site_fract_z
 _atom_site_occupancy
  Cs  Cs1  1  0.63028604  0.16708061  0.73785675  1.0
  Cs  Cs2  1  0.57797629  0.52954507  0.33199787  1.0
  Te  Te1  1  0.00000000  0.53289014  0.62459034  1.0
  Te  Te2  1  0.00000000  0.10850215  0.23095283  1.0
  Au  Au1  1  0.00000000  0.00000000  0.00000000  1.0
  Au  Au2  1  0.00000000  0.59973097  0.00000000  1.0
