# generated using pymatgen
data_Cu3HS4
_symmetry_space_group_name_H-M   'P 1'
_cell_length_a   4.54090595
_cell_length_b   5.33013725
_cell_length_c   5.74873686
_cell_angle_alpha   105.10842896
_cell_angle_beta   107.59391022
_cell_angle_gamma   92.20925903
_symmetry_Int_Tables_number   1
_chemical_formula_structural   Cu3HS4
_chemical_formula_sum   'Cu3 H1 S4'
_cell_volume   127.00227202
_cell_formula_units_Z   1
loop_
 _symmetry_equiv_pos_site_id
 _symmetry_equiv_pos_as_xyz
  1  'x, y, z'
loop_
 _atom_site_type_symbol
 _atom_site_label
 _atom_site_symmetry_multiplicity
 _atom_site_fract_x
 _atom_site_fract_y
 _atom_site_fract_z
 _atom_site_occupancy
  Cu  Cu1  1  0.70696568  0.19098291  0.65588349  1.0
  Cu  Cu2  1  0.32547343  0.76610088  0.45229843  1.0
  Cu  Cu3  1  0.49924400  0.45622686  0.90450621  1.0
  H  H1  1  0.00000000  0.00000000  0.00000000  1.0
  S  S1  1  0.11200297  0.20884475  0.90201044  1.0
  S  S2  1  0.42158666  0.87269688  0.36425459  1.0
  S  S3  1  0.87949651  0.50996840  0.30734190  1.0
  S  S4  1  0.74388599  0.61165750  0.70959795  1.0
