# generated using pymatgen
data_Cu3SbS4
_symmetry_space_group_name_H-M   'P 1'
_cell_length_a   6.25469637
_cell_length_b   5.25935221
_cell_length_c   6.75829792
_cell_angle_alpha   96.85289001
_cell_angle_beta   109.39557648
_cell_angle_gamma   96.72679901
_symmetry_Int_Tables_number   1
_chemical_formula_structural   Cu3SbS4
_chemical_formula_sum   'Cu3 Sb1 S4'
_cell_volume   205.26598469
_cell_formula_units_Z   1
loop_
 _symmetry_equiv_pos_site_id
 _symmetry_equiv_pos_as_xyz
  1  'x, y, z'
loop_
 _atom_site_type_symbol
 _atom_site_label
 _atom_site_symmetry_multiplicity
 _atom_site_fract_x
 _atom_site_fract_y
 _atom_site_fract_z
 _atom_site_occupancy
  Cu  Cu1  1  0.65730935  0.24427202  0.49735582  1.0
  Cu  Cu2  1  0.33648026  0.76121807  0.43937808  1.0
  Cu  Cu3  1  0.73695421  0.43280712  0.94016016  1.0
  Sb  Sb1  1  0.00000000  0.00000000  0.00000000  1.0
  S  S1  1  0.00000000  0.00000000  0.57844079  1.0
  S  S2  1  0.32002813  0.90379900  0.17548138  1.0
  S  S3  1  0.83702087  0.52522558  0.21477646  1.0
  S  S4  1  0.48700991  0.45737821  0.73164350  1.0
