# generated using pymatgen
data_CuBr2
_symmetry_space_group_name_H-M   'P 1'
_cell_length_a   2.95510244
_cell_length_b   4.03373718
_cell_length_c   5.49535370
_cell_angle_alpha   69.24333191
_cell_angle_beta   76.90976715
_cell_angle_gamma   60.60253906
_symmetry_Int_Tables_number   1
_chemical_formula_structural   CuBr2
_chemical_formula_sum   'Cu1 Br2'
_cell_volume   53.25522439
_cell_formula_units_Z   1
loop_
 _symmetry_equiv_pos_site_id
 _symmetry_equiv_pos_as_xyz
  1  'x, y, z'
loop_
 _atom_site_type_symbol
 _atom_site_label
 _atom_site_symmetry_multiplicity
 _atom_site_fract_x
 _atom_site_fract_y
 _atom_site_fract_z
 _atom_site_occupancy
  Cu  Cu1  1  0.00000000  0.00000000  0.00000000  1.0
  Br  Br1  1  0.26515663  0.49197286  0.78416562  1.0
  Br  Br2  1  0.49942306  0.52842617  0.15793043  1.0
