# generated using pymatgen
data_CuMoF6
_symmetry_space_group_name_H-M   'P 1'
_cell_length_a   5.02114630
_cell_length_b   3.64802098
_cell_length_c   5.04826689
_cell_angle_alpha   63.93984222
_cell_angle_beta   69.85494995
_cell_angle_gamma   70.74056244
_symmetry_Int_Tables_number   1
_chemical_formula_structural   CuMoF6
_chemical_formula_sum   'Cu1 Mo1 F6'
_cell_volume   76.21964111
_cell_formula_units_Z   1
loop_
 _symmetry_equiv_pos_site_id
 _symmetry_equiv_pos_as_xyz
  1  'x, y, z'
loop_
 _atom_site_type_symbol
 _atom_site_label
 _atom_site_symmetry_multiplicity
 _atom_site_fract_x
 _atom_site_fract_y
 _atom_site_fract_z
 _atom_site_occupancy
  Cu  Cu1  1  0.00000000  0.00000000  0.00000000  1.0
  Mo  Mo1  1  0.53173941  0.31098372  0.52601904  1.0
  F  F1  1  0.30921453  0.86104399  0.26697317  1.0
  F  F2  1  0.68191713  0.16361171  0.81714904  1.0
  F  F3  1  0.35567683  0.77866614  0.66706848  1.0
  F  F4  1  0.50773019  0.33151522  0.28350219  1.0
  F  F5  1  0.95552683  0.62186843  0.25771838  1.0
  F  F6  1  0.18951452  0.32836741  0.81925023  1.0
