# generated using pymatgen
data_Dy2Ni2Sn
_symmetry_space_group_name_H-M   'P 1'
_cell_length_a   5.58023930
_cell_length_b   5.22660398
_cell_length_c   5.69548988
_cell_angle_alpha   126.27208710
_cell_angle_beta   108.65106964
_cell_angle_gamma   80.71327209
_symmetry_Int_Tables_number   1
_chemical_formula_structural   Dy2Ni2Sn
_chemical_formula_sum   'Dy2 Ni2 Sn1'
_cell_volume   126.80565987
_cell_formula_units_Z   1
loop_
 _symmetry_equiv_pos_site_id
 _symmetry_equiv_pos_as_xyz
  1  'x, y, z'
loop_
 _atom_site_type_symbol
 _atom_site_label
 _atom_site_symmetry_multiplicity
 _atom_site_fract_x
 _atom_site_fract_y
 _atom_site_fract_z
 _atom_site_occupancy
  Dy  Dy1  1  0.17540786  0.74329424  0.53601497  1.0
  Dy  Dy2  1  0.72929353  0.00000000  0.54666352  1.0
  Ni  Ni1  1  0.58928162  0.61545032  0.13326097  1.0
  Ni  Ni2  1  0.24089676  0.66162723  0.86403394  1.0
  Sn  Sn1  1  0.00000000  0.00000000  0.00000000  1.0
