# generated using pymatgen
data_DyB2
_symmetry_space_group_name_H-M   'P 1'
_cell_length_a   2.23945189
_cell_length_b   1.97406399
_cell_length_c   3.77489328
_cell_angle_alpha   90.35729980
_cell_angle_beta   99.47821808
_cell_angle_gamma   130.53302002
_symmetry_Int_Tables_number   1
_chemical_formula_structural   DyB2
_chemical_formula_sum   'Dy1 B2'
_cell_volume   12.36676213
_cell_formula_units_Z   1
loop_
 _symmetry_equiv_pos_site_id
 _symmetry_equiv_pos_as_xyz
  1  'x, y, z'
loop_
 _atom_site_type_symbol
 _atom_site_label
 _atom_site_symmetry_multiplicity
 _atom_site_fract_x
 _atom_site_fract_y
 _atom_site_fract_z
 _atom_site_occupancy
  Dy  Dy1  1  0.00000000  0.00000000  0.00000000  1.0
  B  B1  1  0.30395463  0.78894603  0.54266286  1.0
  B  B2  1  0.65050423  0.33125317  0.49876657  1.0
