# generated using pymatgen
data_DyBr3
_symmetry_space_group_name_H-M   'P 1'
_cell_length_a   7.98562603
_cell_length_b   13.60903647
_cell_length_c   3.74473618
_cell_angle_alpha   88.91908657
_cell_angle_beta   95.20897560
_cell_angle_gamma   121.49712789
_symmetry_Int_Tables_number   1
_chemical_formula_structural   DyBr3
_chemical_formula_sum   'Dy2 Br6'
_cell_volume   345.37706840
_cell_formula_units_Z   2
loop_
 _symmetry_equiv_pos_site_id
 _symmetry_equiv_pos_as_xyz
  1  'x, y, z'
loop_
 _atom_site_type_symbol
 _atom_site_label
 _atom_site_symmetry_multiplicity
 _atom_site_fract_x
 _atom_site_fract_y
 _atom_site_fract_z
 _atom_site_occupancy
  Dy  Dy0  1  0.46196982  0.72274728  0.75632047  1.0
  Dy  Dy1  1  0.67440667  0.25800620  0.24544890  1.0
  Br  Br2  1  0.33342668  0.54133099  0.24528309  1.0
  Br  Br3  1  0.77251445  0.83146714  0.30940174  1.0
  Br  Br4  1  0.28046272  0.79383396  0.21315798  1.0
  Br  Br5  1  0.75220295  0.43281828  0.74960841  1.0
  Br  Br6  1  0.37344199  0.12525415  0.69457625  1.0
  Br  Br7  1  0.89503470  0.21511390  0.78894845  1.0
