# generated using pymatgen
data_DyCoSn
_symmetry_space_group_name_H-M   'P 1'
_cell_length_a   4.88868761
_cell_length_b   7.39890671
_cell_length_c   6.66361618
_cell_angle_alpha   91.46512604
_cell_angle_beta   79.02914429
_cell_angle_gamma   87.46482849
_symmetry_Int_Tables_number   1
_chemical_formula_structural   DyCoSn
_chemical_formula_sum   'Dy4 Co4 Sn4'
_cell_volume   236.25069038
_cell_formula_units_Z   4
loop_
 _symmetry_equiv_pos_site_id
 _symmetry_equiv_pos_as_xyz
  1  'x, y, z'
loop_
 _atom_site_type_symbol
 _atom_site_label
 _atom_site_symmetry_multiplicity
 _atom_site_fract_x
 _atom_site_fract_y
 _atom_site_fract_z
 _atom_site_occupancy
  Dy  Dy1  1  0.25691569  0.32539725  0.34142619  1.0
  Dy  Dy2  1  0.80724788  0.64385819  0.67898983  1.0
  Dy  Dy3  1  0.20367581  0.96164685  0.24368533  1.0
  Dy  Dy4  1  0.71952158  0.00000000  0.80447274  1.0
  Co  Co1  1  0.62389660  0.20995331  0.14614165  1.0
  Co  Co2  1  0.45804131  0.15739864  0.53678912  1.0
  Co  Co3  1  0.85021567  0.89543712  0.41975063  1.0
  Co  Co4  1  0.33950350  0.50244647  0.92032754  1.0
  Sn  Sn1  1  0.28223956  0.69674778  0.60448927  1.0
  Sn  Sn2  1  0.80417711  0.64366072  0.13270850  1.0
  Sn  Sn3  1  0.24023521  0.46425971  0.53701484  1.0
  Sn  Sn4  1  0.78925514  0.25980788  0.34030789  1.0
