# generated using pymatgen
data_DyMgCu
_symmetry_space_group_name_H-M   'P 1'
_cell_length_a   7.20847988
_cell_length_b   7.26498604
_cell_length_c   3.45483708
_cell_angle_alpha   85.31863403
_cell_angle_beta   87.88920593
_cell_angle_gamma   131.00614929
_symmetry_Int_Tables_number   1
_chemical_formula_structural   DyMgCu
_chemical_formula_sum   'Dy3 Mg3 Cu3'
_cell_volume   135.09382717
_cell_formula_units_Z   3
loop_
 _symmetry_equiv_pos_site_id
 _symmetry_equiv_pos_as_xyz
  1  'x, y, z'
loop_
 _atom_site_type_symbol
 _atom_site_label
 _atom_site_symmetry_multiplicity
 _atom_site_fract_x
 _atom_site_fract_y
 _atom_site_fract_z
 _atom_site_occupancy
  Dy  Dy1  1  0.79703921  0.00000000  0.00000000  1.0
  Dy  Dy2  1  0.00000000  0.60353768  0.00000000  1.0
  Dy  Dy3  1  0.29386204  0.37035945  0.00000000  1.0
  Mg  Mg1  1  0.26642728  0.00000000  0.45546025  1.0
  Mg  Mg2  1  0.00000000  0.22887859  0.37982553  1.0
  Mg  Mg3  1  0.79066384  0.87653863  0.57359928  1.0
  Cu  Cu1  1  0.19500381  0.71409309  0.60064828  1.0
  Cu  Cu2  1  0.63121945  0.26342461  0.62711728  1.0
  Cu  Cu3  1  0.00000000  0.00000000  0.00000000  1.0
