# generated using pymatgen
data_Er2AgRu
_symmetry_space_group_name_H-M   'P 1'
_cell_length_a   4.95533276
_cell_length_b   5.16132164
_cell_length_c   4.81557465
_cell_angle_alpha   61.17215347
_cell_angle_beta   64.89765930
_cell_angle_gamma   64.44300079
_symmetry_Int_Tables_number   1
_chemical_formula_structural   Er2AgRu
_chemical_formula_sum   'Er2 Ag1 Ru1'
_cell_volume   93.62927439
_cell_formula_units_Z   1
loop_
 _symmetry_equiv_pos_site_id
 _symmetry_equiv_pos_as_xyz
  1  'x, y, z'
loop_
 _atom_site_type_symbol
 _atom_site_label
 _atom_site_symmetry_multiplicity
 _atom_site_fract_x
 _atom_site_fract_y
 _atom_site_fract_z
 _atom_site_occupancy
  Er  Er1  1  0.58662224  0.42453694  0.52223313  1.0
  Er  Er2  1  0.00000000  0.00000000  0.00000000  1.0
  Ag  Ag1  1  0.25354889  0.23846301  0.30727738  1.0
  Ru  Ru1  1  0.75884414  0.80228567  0.76802409  1.0
