# generated using pymatgen
data_ErBi2ClO4
_symmetry_space_group_name_H-M   'P 1'
_cell_length_a   4.11920881
_cell_length_b   3.70983052
_cell_length_c   8.91213512
_cell_angle_alpha   94.62950134
_cell_angle_beta   98.98203278
_cell_angle_gamma   81.84435272
_symmetry_Int_Tables_number   1
_chemical_formula_structural   ErBi2ClO4
_chemical_formula_sum   'Er1 Bi2 Cl1 O4'
_cell_volume   132.92173647
_cell_formula_units_Z   1
loop_
 _symmetry_equiv_pos_site_id
 _symmetry_equiv_pos_as_xyz
  1  'x, y, z'
loop_
 _atom_site_type_symbol
 _atom_site_label
 _atom_site_symmetry_multiplicity
 _atom_site_fract_x
 _atom_site_fract_y
 _atom_site_fract_z
 _atom_site_occupancy
  Er  Er1  1  0.00000000  0.00000000  0.00000000  1.0
  Bi  Bi1  1  0.35231477  0.59982109  0.36777246  1.0
  Bi  Bi2  1  0.47107989  0.35019493  0.84020758  1.0
  Cl  Cl1  1  0.00000000  0.00000000  0.60435563  1.0
  O  O1  1  0.27923709  0.00000000  0.90498054  1.0
  O  O2  1  0.00000000  0.24228945  0.82660890  1.0
  O  O3  1  0.31560612  0.00000000  0.00000000  1.0
  O  O4  1  0.00000000  0.52393544  0.00000000  1.0
