# generated using pymatgen
data_ErBrO
_symmetry_space_group_name_H-M   'P 1'
_cell_length_a   5.28731155
_cell_length_b   3.95724440
_cell_length_c   9.71197891
_cell_angle_alpha   73.95536041
_cell_angle_beta   72.41036987
_cell_angle_gamma   90.77742004
_symmetry_Int_Tables_number   1
_chemical_formula_structural   ErBrO
_chemical_formula_sum   'Er2 Br2 O2'
_cell_volume   185.11084172
_cell_formula_units_Z   2
loop_
 _symmetry_equiv_pos_site_id
 _symmetry_equiv_pos_as_xyz
  1  'x, y, z'
loop_
 _atom_site_type_symbol
 _atom_site_label
 _atom_site_symmetry_multiplicity
 _atom_site_fract_x
 _atom_site_fract_y
 _atom_site_fract_z
 _atom_site_occupancy
  Er  Er1  1  0.00000000  0.32341915  0.00000000  1.0
  Er  Er2  1  0.47467643  0.00000000  0.84423846  1.0
  Br  Br1  1  0.00000000  0.43898568  0.71300381  1.0
  Br  Br2  1  0.67880547  0.00000000  0.29109573  1.0
  O  O1  1  0.00000000  0.00000000  0.00000000  1.0
  O  O2  1  0.29175824  0.57809180  0.00000000  1.0
