# generated using pymatgen
data_ErBr3
_symmetry_space_group_name_H-M   'P 1'
_cell_length_a   7.70356172
_cell_length_b   7.13516409
_cell_length_c   5.81615256
_cell_angle_alpha   90.03476214
_cell_angle_beta   111.28228618
_cell_angle_gamma   98.86312085
_symmetry_Int_Tables_number   1
_chemical_formula_structural   ErBr3
_chemical_formula_sum   'Er2 Br6'
_cell_volume   293.77743873
_cell_formula_units_Z   2
loop_
 _symmetry_equiv_pos_site_id
 _symmetry_equiv_pos_as_xyz
  1  'x, y, z'
loop_
 _atom_site_type_symbol
 _atom_site_label
 _atom_site_symmetry_multiplicity
 _atom_site_fract_x
 _atom_site_fract_y
 _atom_site_fract_z
 _atom_site_occupancy
  Er  Er0  1  0.48142123  0.84288648  0.64672804  1.0
  Er  Er1  1  0.48270017  0.34333689  0.36270784  1.0
  Br  Br2  1  0.21064018  0.57732866  0.29302269  1.0
  Br  Br3  1  0.75416063  0.66842814  0.55642283  1.0
  Br  Br4  1  0.48310838  0.99238332  0.10409099  1.0
  Br  Br5  1  0.48047567  0.49190384  0.90556130  1.0
  Br  Br6  1  0.21024700  0.07770343  0.45346383  1.0
  Br  Br7  1  0.75316815  0.16770162  0.71758855  1.0
