# generated using pymatgen
data_ErCo5
_symmetry_space_group_name_H-M   'P 1'
_cell_length_a   2.29550910
_cell_length_b   3.19161320
_cell_length_c   2.01256514
_cell_angle_alpha   81.90455627
_cell_angle_beta   95.81078339
_cell_angle_gamma   113.45195770
_symmetry_Int_Tables_number   1
_chemical_formula_structural   ErCo5
_chemical_formula_sum   'Er1 Co5'
_cell_volume   13.37541319
_cell_formula_units_Z   1
loop_
 _symmetry_equiv_pos_site_id
 _symmetry_equiv_pos_as_xyz
  1  'x, y, z'
loop_
 _atom_site_type_symbol
 _atom_site_label
 _atom_site_symmetry_multiplicity
 _atom_site_fract_x
 _atom_site_fract_y
 _atom_site_fract_z
 _atom_site_occupancy
  Er  Er1  1  0.00000000  0.00000000  0.00000000  1.0
  Co  Co1  1  0.00000000  0.54457587  0.43449682  1.0
  Co  Co2  1  0.24743557  0.69028467  0.00000000  1.0
  Co  Co3  1  0.89131963  0.23625562  0.00000000  1.0
  Co  Co4  1  0.40340590  0.00000000  0.43968296  1.0
  Co  Co5  1  0.47170451  0.75538540  0.42104357  1.0
