# generated using pymatgen
data_ErCu2
_symmetry_space_group_name_H-M   'P 1'
_cell_length_a   4.45884371
_cell_length_b   4.62666035
_cell_length_c   6.17125463
_cell_angle_alpha   69.31210327
_cell_angle_beta   57.55616760
_cell_angle_gamma   66.20790863
_symmetry_Int_Tables_number   1
_chemical_formula_structural   ErCu2
_chemical_formula_sum   'Er2 Cu4'
_cell_volume   96.75245591
_cell_formula_units_Z   2
loop_
 _symmetry_equiv_pos_site_id
 _symmetry_equiv_pos_as_xyz
  1  'x, y, z'
loop_
 _atom_site_type_symbol
 _atom_site_label
 _atom_site_symmetry_multiplicity
 _atom_site_fract_x
 _atom_site_fract_y
 _atom_site_fract_z
 _atom_site_occupancy
  Er  Er1  1  0.44246706  0.36346722  0.87827379  1.0
  Er  Er2  1  0.45698923  0.71642369  0.22110665  1.0
  Cu  Cu1  1  0.88495201  0.00000000  0.15672827  1.0
  Cu  Cu2  1  0.12693307  0.80344212  0.74601126  1.0
  Cu  Cu3  1  0.79421473  0.74892813  0.51255107  1.0
  Cu  Cu4  1  0.25916946  0.61222517  0.54593027  1.0
