# generated using pymatgen
data_ErPaO4
_symmetry_space_group_name_H-M   'P 1'
_cell_length_a   3.94274139
_cell_length_b   4.65922451
_cell_length_c   4.83968258
_cell_angle_alpha   94.35152435
_cell_angle_beta   93.31999969
_cell_angle_gamma   94.18559265
_symmetry_Int_Tables_number   1
_chemical_formula_structural   ErPaO4
_chemical_formula_sum   'Er1 Pa1 O4'
_cell_volume   88.23266339
_cell_formula_units_Z   1
loop_
 _symmetry_equiv_pos_site_id
 _symmetry_equiv_pos_as_xyz
  1  'x, y, z'
loop_
 _atom_site_type_symbol
 _atom_site_label
 _atom_site_symmetry_multiplicity
 _atom_site_fract_x
 _atom_site_fract_y
 _atom_site_fract_z
 _atom_site_occupancy
  Er  Er1  1  0.00000000  0.00000000  0.00000000  1.0
  Pa  Pa1  1  0.48236141  0.54747671  0.34294692  1.0
  O  O1  1  0.53790140  0.00000000  0.76117080  1.0
  O  O2  1  0.00000000  0.29798496  0.40880790  1.0
  O  O3  1  0.42336676  0.00000000  0.35923585  1.0
  O  O4  1  0.00000000  0.61748409  0.54403418  1.0
