# generated using pymatgen
data_ErRu2
_symmetry_space_group_name_H-M   'P 1'
_cell_length_a   4.93996525
_cell_length_b   5.20973396
_cell_length_c   7.88268566
_cell_angle_alpha   89.45255280
_cell_angle_beta   92.31088257
_cell_angle_gamma   115.97408295
_symmetry_Int_Tables_number   1
_chemical_formula_structural   ErRu2
_chemical_formula_sum   'Er4 Ru8'
_cell_volume   182.22106646
_cell_formula_units_Z   4
loop_
 _symmetry_equiv_pos_site_id
 _symmetry_equiv_pos_as_xyz
  1  'x, y, z'
loop_
 _atom_site_type_symbol
 _atom_site_label
 _atom_site_symmetry_multiplicity
 _atom_site_fract_x
 _atom_site_fract_y
 _atom_site_fract_z
 _atom_site_occupancy
  Er  Er1  1  0.43079618  0.75857735  0.42624629  1.0
  Er  Er2  1  0.57082921  0.21772170  0.73090798  1.0
  Er  Er3  1  0.67313308  0.64105433  0.89942688  1.0
  Er  Er4  1  0.23283973  0.68404758  0.00000000  1.0
  Ru  Ru1  1  0.13405505  0.15739408  0.85464358  1.0
  Ru  Ru2  1  0.20403770  0.87084854  0.83638811  1.0
  Ru  Ru3  1  0.36116478  0.24500921  0.35429883  1.0
  Ru  Ru4  1  0.78931761  0.71783614  0.37943795  1.0
  Ru  Ru5  1  0.65694737  0.78395331  0.67863834  1.0
  Ru  Ru6  1  0.00000000  0.00000000  0.00000000  1.0
  Ru  Ru7  1  0.76584470  0.15381089  0.35150057  1.0
  Ru  Ru8  1  0.00000000  0.00000000  0.55324590  1.0
