# generated using pymatgen
data_ErTl3
_symmetry_space_group_name_H-M   'P 1'
_cell_length_a   6.23131895
_cell_length_b   5.11597013
_cell_length_c   4.83265066
_cell_angle_alpha   89.20020294
_cell_angle_beta   88.04456329
_cell_angle_gamma   97.52378082
_symmetry_Int_Tables_number   1
_chemical_formula_structural   ErTl3
_chemical_formula_sum   'Er1 Tl3'
_cell_volume   152.61952153
_cell_formula_units_Z   1
loop_
 _symmetry_equiv_pos_site_id
 _symmetry_equiv_pos_as_xyz
  1  'x, y, z'
loop_
 _atom_site_type_symbol
 _atom_site_label
 _atom_site_symmetry_multiplicity
 _atom_site_fract_x
 _atom_site_fract_y
 _atom_site_fract_z
 _atom_site_occupancy
  Er  Er1  1  0.00000000  0.00000000  0.00000000  1.0
  Tl  Tl1  1  0.00000000  0.53132963  0.59248620  1.0
  Tl  Tl2  1  0.31256992  0.41962796  0.00000000  1.0
  Tl  Tl3  1  0.64794385  0.00000000  0.57027227  1.0
