# generated using pymatgen
data_ErTlSe2
_symmetry_space_group_name_H-M   'P 1'
_cell_length_a   8.49294472
_cell_length_b   8.68398571
_cell_length_c   9.41973591
_cell_angle_alpha   26.74563026
_cell_angle_beta   27.46414375
_cell_angle_gamma   27.39569664
_symmetry_Int_Tables_number   1
_chemical_formula_structural   ErTlSe2
_chemical_formula_sum   'Er1 Tl1 Se2'
_cell_volume   128.02855326
_cell_formula_units_Z   1
loop_
 _symmetry_equiv_pos_site_id
 _symmetry_equiv_pos_as_xyz
  1  'x, y, z'
loop_
 _atom_site_type_symbol
 _atom_site_label
 _atom_site_symmetry_multiplicity
 _atom_site_fract_x
 _atom_site_fract_y
 _atom_site_fract_z
 _atom_site_occupancy
  Er  Er1  1  0.00000000  0.00000000  0.00000000  1.0
  Tl  Tl1  1  0.44013718  0.50884831  0.48329687  1.0
  Se  Se1  1  0.81833816  0.70819801  0.77324003  1.0
  Se  Se2  1  0.35364240  0.39852279  0.22851846  1.0
