# generated using pymatgen
data_Eu(SiNi)2
_symmetry_space_group_name_H-M   'P 1'
_cell_length_a   3.06604362
_cell_length_b   4.57655954
_cell_length_c   5.37926102
_cell_angle_alpha   114.91628265
_cell_angle_beta   116.73289490
_cell_angle_gamma   91.37847900
_symmetry_Int_Tables_number   1
_chemical_formula_structural   Eu(SiNi)2
_chemical_formula_sum   'Eu1 Si2 Ni2'
_cell_volume   58.97540269
_cell_formula_units_Z   1
loop_
 _symmetry_equiv_pos_site_id
 _symmetry_equiv_pos_as_xyz
  1  'x, y, z'
loop_
 _atom_site_type_symbol
 _atom_site_label
 _atom_site_symmetry_multiplicity
 _atom_site_fract_x
 _atom_site_fract_y
 _atom_site_fract_z
 _atom_site_occupancy
  Eu  Eu1  1  0.00000000  0.00000000  0.00000000  1.0
  Si  Si1  1  0.58758181  0.74016356  0.26774913  1.0
  Si  Si2  1  0.38485420  0.25525194  0.76016533  1.0
  Ni  Ni1  1  0.79536819  0.31059986  0.43168995  1.0
  Ni  Ni2  1  0.35160679  0.79655647  0.48386529  1.0
