# generated using pymatgen
data_EuAu2
_symmetry_space_group_name_H-M   'P 1'
_cell_length_a   5.16290379
_cell_length_b   6.39091730
_cell_length_c   5.69978142
_cell_angle_alpha   70.14501953
_cell_angle_beta   54.96659088
_cell_angle_gamma   41.16284943
_symmetry_Int_Tables_number   1
_chemical_formula_structural   EuAu2
_chemical_formula_sum   'Eu2 Au4'
_cell_volume   99.85372084
_cell_formula_units_Z   2
loop_
 _symmetry_equiv_pos_site_id
 _symmetry_equiv_pos_as_xyz
  1  'x, y, z'
loop_
 _atom_site_type_symbol
 _atom_site_label
 _atom_site_symmetry_multiplicity
 _atom_site_fract_x
 _atom_site_fract_y
 _atom_site_fract_z
 _atom_site_occupancy
  Eu  Eu1  1  0.45790422  0.66214943  0.30170512  1.0
  Eu  Eu2  1  0.27225581  0.18381244  0.60210973  1.0
  Au  Au1  1  0.00000000  0.26408082  0.50884020  1.0
  Au  Au2  1  0.83376551  0.72721273  0.66793031  1.0
  Au  Au3  1  0.80263841  0.00000000  0.11778075  1.0
  Au  Au4  1  0.24798203  0.82212055  0.78952569  1.0
