# generated using pymatgen
data_EuCo5
_symmetry_space_group_name_H-M   'P 1'
_cell_length_a   4.32919931
_cell_length_b   4.46803999
_cell_length_c   3.47797847
_cell_angle_alpha   87.68769836
_cell_angle_beta   92.31353760
_cell_angle_gamma   138.78332520
_symmetry_Int_Tables_number   1
_chemical_formula_structural   EuCo5
_chemical_formula_sum   'Eu1 Co5'
_cell_volume   44.28661807
_cell_formula_units_Z   1
loop_
 _symmetry_equiv_pos_site_id
 _symmetry_equiv_pos_as_xyz
  1  'x, y, z'
loop_
 _atom_site_type_symbol
 _atom_site_label
 _atom_site_symmetry_multiplicity
 _atom_site_fract_x
 _atom_site_fract_y
 _atom_site_fract_z
 _atom_site_occupancy
  Eu  Eu1  1  0.00000000  0.00000000  0.00000000  1.0
  Co  Co1  1  0.00000000  0.25825250  0.50268251  1.0
  Co  Co2  1  0.32542428  0.72273493  0.00000000  1.0
  Co  Co3  1  0.69994909  0.38117248  0.00000000  1.0
  Co  Co4  1  0.62598276  0.00000000  0.61968416  1.0
  Co  Co5  1  0.18071848  0.37630486  0.85402215  1.0
