# generated using pymatgen
data_EuMg
_symmetry_space_group_name_H-M   'P 1'
_cell_length_a   8.56564236
_cell_length_b   6.64668798
_cell_length_c   7.65834093
_cell_angle_alpha   96.71603394
_cell_angle_beta   105.46305084
_cell_angle_gamma   49.26747513
_symmetry_Int_Tables_number   1
_chemical_formula_structural   EuMg
_chemical_formula_sum   'Eu2 Mg2'
_cell_volume   317.46366713
_cell_formula_units_Z   2
loop_
 _symmetry_equiv_pos_site_id
 _symmetry_equiv_pos_as_xyz
  1  'x, y, z'
loop_
 _atom_site_type_symbol
 _atom_site_label
 _atom_site_symmetry_multiplicity
 _atom_site_fract_x
 _atom_site_fract_y
 _atom_site_fract_z
 _atom_site_occupancy
  Eu  Eu1  1  0.81794786  0.81634730  0.61323464  1.0
  Eu  Eu2  1  0.13688183  0.21449015  0.37751380  1.0
  Mg  Mg1  1  0.62770331  0.80657554  0.76188439  1.0
  Mg  Mg2  1  0.28774112  0.23925772  0.12521288  1.0
