# generated using pymatgen
data_Fe3SnC
_symmetry_space_group_name_H-M   'P 1'
_cell_length_a   2.66212273
_cell_length_b   3.84036446
_cell_length_c   4.04050255
_cell_angle_alpha   85.00410461
_cell_angle_beta   92.41857147
_cell_angle_gamma   102.98445892
_symmetry_Int_Tables_number   1
_chemical_formula_structural   Fe3SnC
_chemical_formula_sum   'Fe3 Sn1 C1'
_cell_volume   40.08813813
_cell_formula_units_Z   1
loop_
 _symmetry_equiv_pos_site_id
 _symmetry_equiv_pos_as_xyz
  1  'x, y, z'
loop_
 _atom_site_type_symbol
 _atom_site_label
 _atom_site_symmetry_multiplicity
 _atom_site_fract_x
 _atom_site_fract_y
 _atom_site_fract_z
 _atom_site_occupancy
  Fe  Fe1  1  0.45828891  0.00000000  0.35689065  1.0
  Fe  Fe2  1  0.00000000  0.76420856  0.59534276  1.0
  Fe  Fe3  1  0.43364611  0.43007737  0.00000000  1.0
  Sn  Sn1  1  0.00000000  0.00000000  0.00000000  1.0
  C  C1  1  0.45363486  0.52054638  0.43769813  1.0
