# generated using pymatgen
data_FeB2Mo
_symmetry_space_group_name_H-M   'P 1'
_cell_length_a   7.40335083
_cell_length_b   5.34967852
_cell_length_c   5.81002235
_cell_angle_alpha   160.14979553
_cell_angle_beta   152.55969238
_cell_angle_gamma   30.78853416
_symmetry_Int_Tables_number   1
_chemical_formula_structural   FeB2Mo
_chemical_formula_sum   'Fe2 B4 Mo2'
_cell_volume   35.57021876
_cell_formula_units_Z   2
loop_
 _symmetry_equiv_pos_site_id
 _symmetry_equiv_pos_as_xyz
  1  'x, y, z'
loop_
 _atom_site_type_symbol
 _atom_site_label
 _atom_site_symmetry_multiplicity
 _atom_site_fract_x
 _atom_site_fract_y
 _atom_site_fract_z
 _atom_site_occupancy
  Fe  Fe1  1  0.92869222  0.85252452  0.00000000  1.0
  Fe  Fe2  1  0.00000000  0.24388400  0.00000000  1.0
  B  B1  1  0.43988904  0.91904110  0.47098428  1.0
  B  B2  1  0.46194306  0.10427210  0.91130185  1.0
  B  B3  1  0.65822142  0.37580284  0.00000000  1.0
  B  B4  1  0.55220973  0.38681972  0.00000000  1.0
  Mo  Mo1  1  0.00000000  0.36757043  0.88697612  1.0
  Mo  Mo2  1  0.00000000  0.00000000  0.00000000  1.0
