# generated using pymatgen
data_FeB5Mo
_symmetry_space_group_name_H-M   'P 1'
_cell_length_a   7.61001539
_cell_length_b   5.83805132
_cell_length_c   5.41209078
_cell_angle_alpha   155.87252808
_cell_angle_beta   136.95872498
_cell_angle_gamma   21.00953865
_symmetry_Int_Tables_number   1
_chemical_formula_structural   FeB5Mo
_chemical_formula_sum   'Fe1 B5 Mo1'
_cell_volume   19.84440000
_cell_formula_units_Z   1
loop_
 _symmetry_equiv_pos_site_id
 _symmetry_equiv_pos_as_xyz
  1  'x, y, z'
loop_
 _atom_site_type_symbol
 _atom_site_label
 _atom_site_symmetry_multiplicity
 _atom_site_fract_x
 _atom_site_fract_y
 _atom_site_fract_z
 _atom_site_occupancy
  Fe  Fe1  1  0.73243976  0.41455984  0.00000000  1.0
  B  B1  1  0.29167318  0.21911466  0.00000000  1.0
  B  B2  1  0.16219211  0.75108492  0.71639687  1.0
  B  B3  1  0.25125444  0.00000000  0.41524497  1.0
  B  B4  1  0.48514399  0.38952830  0.00000000  1.0
  B  B5  1  0.37168247  0.79747188  0.00000000  1.0
  Mo  Mo1  1  0.00000000  0.00000000  0.54031885  1.0
