# generated using pymatgen
data_FeB5Mo2
_symmetry_space_group_name_H-M   'P 1'
_cell_length_a   3.43370914
_cell_length_b   2.74067044
_cell_length_c   4.14595842
_cell_angle_alpha   154.81655884
_cell_angle_beta   144.78605652
_cell_angle_gamma   24.61677742
_symmetry_Int_Tables_number   1
_chemical_formula_structural   FeB5Mo2
_chemical_formula_sum   'Fe1 B5 Mo2'
_cell_volume   6.91197959
_cell_formula_units_Z   1
loop_
 _symmetry_equiv_pos_site_id
 _symmetry_equiv_pos_as_xyz
  1  'x, y, z'
loop_
 _atom_site_type_symbol
 _atom_site_label
 _atom_site_symmetry_multiplicity
 _atom_site_fract_x
 _atom_site_fract_y
 _atom_site_fract_z
 _atom_site_occupancy
  Fe  Fe1  1  0.87417519  0.66485316  0.00000000  1.0
  B  B1  1  0.11555257  0.18464008  0.00000000  1.0
  B  B2  1  0.55494064  0.95965350  0.30483395  1.0
  B  B3  1  0.71505129  0.00000000  0.47790942  1.0
  B  B4  1  0.21655330  0.11665267  0.00000000  1.0
  B  B5  1  0.72016013  0.58827478  0.00000000  1.0
  Mo  Mo1  1  0.00000000  0.27372587  0.37759507  1.0
  Mo  Mo2  1  0.00000000  0.00000000  0.00000000  1.0
