# generated using pymatgen
data_FeB
_symmetry_space_group_name_H-M   'P 1'
_cell_length_a   2.78256845
_cell_length_b   4.58410406
_cell_length_c   3.54710245
_cell_angle_alpha   80.40146637
_cell_angle_beta   66.70970917
_cell_angle_gamma   88.83033752
_symmetry_Int_Tables_number   1
_chemical_formula_structural   FeB
_chemical_formula_sum   'Fe2 B2'
_cell_volume   40.92488232
_cell_formula_units_Z   2
loop_
 _symmetry_equiv_pos_site_id
 _symmetry_equiv_pos_as_xyz
  1  'x, y, z'
loop_
 _atom_site_type_symbol
 _atom_site_label
 _atom_site_symmetry_multiplicity
 _atom_site_fract_x
 _atom_site_fract_y
 _atom_site_fract_z
 _atom_site_occupancy
  Fe  Fe1  1  0.11115804  0.75084627  0.66843182  1.0
  Fe  Fe2  1  0.81768715  0.16446000  0.22051159  1.0
  B  B1  1  0.48477286  0.78306818  0.12262425  1.0
  B  B2  1  0.75989091  0.20028567  0.80354315  1.0
