# generated using pymatgen
data_FePt4
_symmetry_space_group_name_H-M   'P 1'
_cell_length_a   4.41589689
_cell_length_b   5.00350571
_cell_length_c   5.53402472
_cell_angle_alpha   96.17034149
_cell_angle_beta   91.86220551
_cell_angle_gamma   88.42915344
_symmetry_Int_Tables_number   1
_chemical_formula_structural   FePt4
_chemical_formula_sum   'Fe1 Pt4'
_cell_volume   121.46630676
_cell_formula_units_Z   1
loop_
 _symmetry_equiv_pos_site_id
 _symmetry_equiv_pos_as_xyz
  1  'x, y, z'
loop_
 _atom_site_type_symbol
 _atom_site_label
 _atom_site_symmetry_multiplicity
 _atom_site_fract_x
 _atom_site_fract_y
 _atom_site_fract_z
 _atom_site_occupancy
  Fe  Fe1  1  0.00000000  0.00000000  0.00000000  1.0
  Pt  Pt1  1  0.00000000  0.58335155  0.51235414  1.0
  Pt  Pt2  1  0.47899863  0.67760831  0.00000000  1.0
  Pt  Pt3  1  0.47457024  0.00000000  0.25903231  1.0
  Pt  Pt4  1  0.00000000  0.10355520  0.00000000  1.0
