# generated using pymatgen
data_Ga3HPd
_symmetry_space_group_name_H-M   'P 1'
_cell_length_a   6.57035303
_cell_length_b   6.61915302
_cell_length_c   6.17398882
_cell_angle_alpha   89.30466461
_cell_angle_beta   86.94318390
_cell_angle_gamma   108.78469086
_symmetry_Int_Tables_number   1
_chemical_formula_structural   Ga3HPd
_chemical_formula_sum   'Ga6 H2 Pd2'
_cell_volume   253.72215459
_cell_formula_units_Z   2
loop_
 _symmetry_equiv_pos_site_id
 _symmetry_equiv_pos_as_xyz
  1  'x, y, z'
loop_
 _atom_site_type_symbol
 _atom_site_label
 _atom_site_symmetry_multiplicity
 _atom_site_fract_x
 _atom_site_fract_y
 _atom_site_fract_z
 _atom_site_occupancy
  Ga  Ga1  1  0.65955037  0.46150404  0.71918589  1.0
  Ga  Ga2  1  0.34144193  0.62556702  0.00000000  1.0
  Ga  Ga3  1  0.82502782  0.79176319  0.00000000  1.0
  Ga  Ga4  1  0.77113229  0.84081918  0.28453523  1.0
  Ga  Ga5  1  0.17601037  0.29129708  0.00000000  1.0
  Ga  Ga6  1  0.55046058  0.15811121  0.33768958  1.0
  H  H1  1  0.19467458  0.78462774  0.71956789  1.0
  H  H2  1  0.93379134  0.21741682  0.22088414  1.0
  Pd  Pd1  1  0.92633188  0.00000000  0.89620519  1.0
  Pd  Pd2  1  0.11247887  0.89037424  0.45851558  1.0
