# generated using pymatgen
data_Ga4Se3Cl5
_symmetry_space_group_name_H-M   'P 1'
_cell_length_a   4.17547453
_cell_length_b   9.30114690
_cell_length_c   21.32243064
_cell_angle_alpha   87.63359078
_cell_angle_beta   83.75558817
_cell_angle_gamma   98.04347902
_symmetry_Int_Tables_number   1
_chemical_formula_structural   Ga4Se3Cl5
_chemical_formula_sum   'Ga4 Se3 Cl5'
_cell_volume   813.73706981
_cell_formula_units_Z   1
loop_
 _symmetry_equiv_pos_site_id
 _symmetry_equiv_pos_as_xyz
  1  'x, y, z'
loop_
 _atom_site_type_symbol
 _atom_site_label
 _atom_site_symmetry_multiplicity
 _atom_site_fract_x
 _atom_site_fract_y
 _atom_site_fract_z
 _atom_site_occupancy
  Ga  Ga0  1  0.69130482  0.40213417  0.31813171  1.0
  Ga  Ga1  1  0.00848730  0.01833558  0.52990718  1.0
  Ga  Ga2  1  0.03745560  0.61801498  0.23241716  1.0
  Ga  Ga3  1  0.38576329  0.24975158  0.75214589  1.0
  Se  Se4  1  0.65587891  0.21183160  0.60945374  1.0
  Se  Se5  1  0.00047492  0.81957244  0.83178905  1.0
  Se  Se6  1  0.04046970  0.37147867  0.41787830  1.0
  Cl  Cl7  1  0.53980958  0.86017220  0.27698251  1.0
  Cl  Cl8  1  0.55897940  0.12932290  0.89839527  1.0
  Cl  Cl9  1  0.02151522  0.25707817  0.51638454  1.0
  Cl  Cl10  1  0.45004824  0.75953329  0.00902565  1.0
  Cl  Cl11  1  0.99172316  0.25301834  0.23244289  1.0
