# generated using pymatgen
data_Ga4Se4Cl5
_symmetry_space_group_name_H-M   'P 1'
_cell_length_a   3.67213102
_cell_length_b   10.34296765
_cell_length_c   11.11932863
_cell_angle_alpha   72.28500457
_cell_angle_beta   103.78848996
_cell_angle_gamma   97.54813427
_symmetry_Int_Tables_number   1
_chemical_formula_structural   Ga4Se4Cl5
_chemical_formula_sum   'Ga4 Se4 Cl5'
_cell_volume   389.91040869
_cell_formula_units_Z   1
loop_
 _symmetry_equiv_pos_site_id
 _symmetry_equiv_pos_as_xyz
  1  'x, y, z'
loop_
 _atom_site_type_symbol
 _atom_site_label
 _atom_site_symmetry_multiplicity
 _atom_site_fract_x
 _atom_site_fract_y
 _atom_site_fract_z
 _atom_site_occupancy
  Ga  Ga0  1  0.63922155  0.69215732  0.31442605  1.0
  Ga  Ga1  1  0.91736021  0.42821526  0.15436196  1.0
  Ga  Ga2  1  0.68666126  0.08346057  0.09130230  1.0
  Ga  Ga3  1  0.22400507  0.33903913  0.63863577  1.0
  Se  Se4  1  0.63724882  0.93745173  0.45655715  1.0
  Se  Se5  1  0.09310081  0.49456958  0.36220317  1.0
  Se  Se6  1  0.30927253  0.26116921  0.11513833  1.0
  Se  Se7  1  0.69213177  0.82175791  0.65757805  1.0
  Cl  Cl8  1  0.61049746  0.24646389  0.83485779  1.0
  Cl  Cl9  1  0.80607935  0.51374219  0.62034265  1.0
  Cl  Cl10  1  0.52700616  0.60929033  0.06402967  1.0
  Cl  Cl11  1  0.87691913  0.17009453  0.49635750  1.0
  Cl  Cl12  1  0.13234507  0.92453230  0.02336267  1.0
