# generated using pymatgen
data_GaCl3
_symmetry_space_group_name_H-M   'P 1'
_cell_length_a   6.69372272
_cell_length_b   6.76990318
_cell_length_c   7.28390646
_cell_angle_alpha   62.02232742
_cell_angle_beta   69.90746307
_cell_angle_gamma   75.05338287
_symmetry_Int_Tables_number   1
_chemical_formula_structural   GaCl3
_chemical_formula_sum   'Ga2 Cl6'
_cell_volume   271.89028363
_cell_formula_units_Z   2
loop_
 _symmetry_equiv_pos_site_id
 _symmetry_equiv_pos_as_xyz
  1  'x, y, z'
loop_
 _atom_site_type_symbol
 _atom_site_label
 _atom_site_symmetry_multiplicity
 _atom_site_fract_x
 _atom_site_fract_y
 _atom_site_fract_z
 _atom_site_occupancy
  Ga  Ga1  1  0.45620596  0.00000000  0.13709384  1.0
  Ga  Ga2  1  0.57359254  0.81555605  0.76781940  1.0
  Cl  Cl1  1  0.72614467  0.96457070  0.15514153  1.0
  Cl  Cl2  1  0.21619338  0.00000000  0.93545920  1.0
  Cl  Cl3  1  0.76280230  0.28692430  0.27674645  1.0
  Cl  Cl4  1  0.51111883  0.69019693  0.55191964  1.0
  Cl  Cl5  1  0.80772567  0.45129657  0.86811435  1.0
  Cl  Cl6  1  0.24802819  0.36039937  0.26719880  1.0
