# generated using pymatgen
data_GaSeCl
_symmetry_space_group_name_H-M   'P 1'
_cell_length_a   4.43614804
_cell_length_b   5.45519417
_cell_length_c   27.24650222
_cell_angle_alpha   93.06492558
_cell_angle_beta   63.54207288
_cell_angle_gamma   91.18953629
_symmetry_Int_Tables_number   1
_chemical_formula_structural   GaSeCl
_chemical_formula_sum   'Ga4 Se4 Cl4'
_cell_volume   589.45794751
_cell_formula_units_Z   4
loop_
 _symmetry_equiv_pos_site_id
 _symmetry_equiv_pos_as_xyz
  1  'x, y, z'
loop_
 _atom_site_type_symbol
 _atom_site_label
 _atom_site_symmetry_multiplicity
 _atom_site_fract_x
 _atom_site_fract_y
 _atom_site_fract_z
 _atom_site_occupancy
  Ga  Ga0  1  0.64362417  0.71487770  0.32899680  1.0
  Ga  Ga1  1  0.97089228  0.97210306  0.65316362  1.0
  Ga  Ga2  1  0.64859169  0.02054247  0.55768625  1.0
  Ga  Ga3  1  0.24999449  0.25889989  0.48557383  1.0
  Se  Se4  1  0.99875170  0.41474617  0.60794302  1.0
  Se  Se5  1  0.08401476  0.77361732  0.89842248  1.0
  Se  Se6  1  0.98159291  0.13434741  0.24495637  1.0
  Se  Se7  1  0.43910739  0.59907882  0.60622898  1.0
  Cl  Cl8  1  0.69587899  0.19131341  0.15672920  1.0
  Cl  Cl9  1  0.97955086  0.65762725  0.74866278  1.0
  Cl  Cl10  1  0.05374755  0.13521281  0.87918820  1.0
  Cl  Cl11  1  0.67302024  0.08638156  0.41646365  1.0
