# generated using pymatgen
data_Gd3I
_symmetry_space_group_name_H-M   'P 1'
_cell_length_a   5.09205532
_cell_length_b   5.48426676
_cell_length_c   5.33869457
_cell_angle_alpha   93.67247772
_cell_angle_beta   98.83514404
_cell_angle_gamma   84.05150604
_symmetry_Int_Tables_number   1
_chemical_formula_structural   Gd3I
_chemical_formula_sum   'Gd3 I1'
_cell_volume   146.35125532
_cell_formula_units_Z   1
loop_
 _symmetry_equiv_pos_site_id
 _symmetry_equiv_pos_as_xyz
  1  'x, y, z'
loop_
 _atom_site_type_symbol
 _atom_site_label
 _atom_site_symmetry_multiplicity
 _atom_site_fract_x
 _atom_site_fract_y
 _atom_site_fract_z
 _atom_site_occupancy
  Gd  Gd1  1  0.00000000  0.52831644  0.44295880  1.0
  Gd  Gd2  1  0.28573436  0.00000000  0.48198465  1.0
  Gd  Gd3  1  0.44500172  0.50736779  0.00000000  1.0
  I  I1  1  0.00000000  0.00000000  0.00000000  1.0
