# generated using pymatgen
data_GdCl3
_symmetry_space_group_name_H-M   'P 1'
_cell_length_a   7.92880106
_cell_length_b   7.80907965
_cell_length_c   4.64086723
_cell_angle_alpha   97.31925201
_cell_angle_beta   90.63568878
_cell_angle_gamma   134.13876343
_symmetry_Int_Tables_number   1
_chemical_formula_structural   GdCl3
_chemical_formula_sum   'Gd2 Cl6'
_cell_volume   202.51479202
_cell_formula_units_Z   2
loop_
 _symmetry_equiv_pos_site_id
 _symmetry_equiv_pos_as_xyz
  1  'x, y, z'
loop_
 _atom_site_type_symbol
 _atom_site_label
 _atom_site_symmetry_multiplicity
 _atom_site_fract_x
 _atom_site_fract_y
 _atom_site_fract_z
 _atom_site_occupancy
  Gd  Gd1  1  0.45045120  0.64666140  0.20427480  1.0
  Gd  Gd2  1  0.57224190  0.22402254  0.72309995  1.0
  Cl  Cl1  1  0.37768206  0.51420265  0.27867717  1.0
  Cl  Cl2  1  0.11858562  0.38786596  0.74323714  1.0
  Cl  Cl3  1  0.32909268  0.76588070  0.84550571  1.0
  Cl  Cl4  1  0.88001889  0.14440614  0.30376464  1.0
  Cl  Cl5  1  0.83634567  0.59506851  0.26392817  1.0
  Cl  Cl6  1  0.55380076  0.77283144  0.66769618  1.0
