# generated using pymatgen
data_GdOF
_symmetry_space_group_name_H-M   'P 1'
_cell_length_a   7.67913732
_cell_length_b   9.09664195
_cell_length_c   4.19581338
_cell_angle_alpha   94.89592774
_cell_angle_beta   56.65993011
_cell_angle_gamma   106.97559783
_symmetry_Int_Tables_number   1
_chemical_formula_structural   GdOF
_chemical_formula_sum   'Gd2 O2 F2'
_cell_volume   233.15311388
_cell_formula_units_Z   2
loop_
 _symmetry_equiv_pos_site_id
 _symmetry_equiv_pos_as_xyz
  1  'x, y, z'
loop_
 _atom_site_type_symbol
 _atom_site_label
 _atom_site_symmetry_multiplicity
 _atom_site_fract_x
 _atom_site_fract_y
 _atom_site_fract_z
 _atom_site_occupancy
  Gd  Gd0  1  0.10254897  0.81845961  0.27002226  1.0
  Gd  Gd1  1  0.61385841  0.48033211  0.72215011  1.0
  O  O2  1  0.37148547  0.46081548  0.32977603  1.0
  O  O3  1  0.80764738  0.66444562  0.82924425  1.0
  F  F4  1  0.43910668  0.72397644  0.28230912  1.0
  F  F5  1  0.67450044  0.82795320  0.72245051  1.0
