# generated using pymatgen
data_GdOF
_symmetry_space_group_name_H-M   'P 1'
_cell_length_a   3.86274586
_cell_length_b   6.68828429
_cell_length_c   3.87027812
_cell_angle_alpha   106.57399753
_cell_angle_beta   61.49070214
_cell_angle_gamma   109.62941431
_symmetry_Int_Tables_number   1
_chemical_formula_structural   GdOF
_chemical_formula_sum   'Gd2 O2 F2'
_cell_volume   81.81033401
_cell_formula_units_Z   2
loop_
 _symmetry_equiv_pos_site_id
 _symmetry_equiv_pos_as_xyz
  1  'x, y, z'
loop_
 _atom_site_type_symbol
 _atom_site_label
 _atom_site_symmetry_multiplicity
 _atom_site_fract_x
 _atom_site_fract_y
 _atom_site_fract_z
 _atom_site_occupancy
  Gd  Gd0  1  0.23225643  0.70390472  0.25848969  1.0
  Gd  Gd1  1  0.72000012  0.25424085  0.78713670  1.0
  O  O2  1  0.09418949  0.34096926  0.14692162  1.0
  O  O3  1  0.85801015  0.61697764  0.89877562  1.0
  F  F4  1  0.33614691  0.09034586  0.39451176  1.0
  F  F5  1  0.61488106  0.86729767  0.65089390  1.0
