# generated using pymatgen
data_GdRh
_symmetry_space_group_name_H-M   'P 1'
_cell_length_a   3.49852824
_cell_length_b   2.19304943
_cell_length_c   3.24522161
_cell_angle_alpha   99.03806305
_cell_angle_beta   94.01473236
_cell_angle_gamma   93.94213867
_symmetry_Int_Tables_number   1
_chemical_formula_structural   GdRh
_chemical_formula_sum   'Gd1 Rh1'
_cell_volume   24.44880770
_cell_formula_units_Z   1
loop_
 _symmetry_equiv_pos_site_id
 _symmetry_equiv_pos_as_xyz
  1  'x, y, z'
loop_
 _atom_site_type_symbol
 _atom_site_label
 _atom_site_symmetry_multiplicity
 _atom_site_fract_x
 _atom_site_fract_y
 _atom_site_fract_z
 _atom_site_occupancy
  Gd  Gd1  1  0.00000000  0.00000000  0.00000000  1.0
  Rh  Rh1  1  0.61179310  0.44715255  0.51874894  1.0
