# generated using pymatgen
data_GdSBr
_symmetry_space_group_name_H-M   'P 1'
_cell_length_a   8.32361221
_cell_length_b   6.60153770
_cell_length_c   6.80902433
_cell_angle_alpha   89.69417572
_cell_angle_beta   91.90890503
_cell_angle_gamma   91.77857208
_symmetry_Int_Tables_number   1
_chemical_formula_structural   GdSBr
_chemical_formula_sum   'Gd4 S4 Br4'
_cell_volume   373.75537461
_cell_formula_units_Z   4
loop_
 _symmetry_equiv_pos_site_id
 _symmetry_equiv_pos_as_xyz
  1  'x, y, z'
loop_
 _atom_site_type_symbol
 _atom_site_label
 _atom_site_symmetry_multiplicity
 _atom_site_fract_x
 _atom_site_fract_y
 _atom_site_fract_z
 _atom_site_occupancy
  Gd  Gd0  1  0.97536898  0.70276487  0.58746755  1.0
  Gd  Gd1  1  0.00000000  0.00000000  0.74960965  1.0
  Gd  Gd2  1  0.41375342  0.75502944  0.66143858  1.0
  Gd  Gd3  1  0.18215886  0.30928579  0.23086911  1.0
  S  S4  1  0.86078644  0.96549720  0.50050366  1.0
  S  S5  1  0.28762484  0.00000000  0.34884506  1.0
  S  S6  1  0.28906566  0.58878183  0.42873973  1.0
  S  S7  1  0.82705706  0.50210202  0.49886444  1.0
  Br  Br8  1  0.66026813  0.64875245  0.00000000  1.0
  Br  Br9  1  0.30122223  0.20174913  0.96296352  1.0
  Br  Br10  1  0.00000000  0.73843336  0.88399309  1.0
  Br  Br11  1  0.60233104  0.00000000  0.00000000  1.0
