# generated using pymatgen
data_GeO2
_symmetry_space_group_name_H-M   'P 1'
_cell_length_a   2.60831571
_cell_length_b   5.01940012
_cell_length_c   4.23340750
_cell_angle_alpha   96.30359650
_cell_angle_beta   95.39498138
_cell_angle_gamma   108.86837006
_symmetry_Int_Tables_number   1
_chemical_formula_structural   GeO2
_chemical_formula_sum   'Ge2 O4'
_cell_volume   51.63244930
_cell_formula_units_Z   2
loop_
 _symmetry_equiv_pos_site_id
 _symmetry_equiv_pos_as_xyz
  1  'x, y, z'
loop_
 _atom_site_type_symbol
 _atom_site_label
 _atom_site_symmetry_multiplicity
 _atom_site_fract_x
 _atom_site_fract_y
 _atom_site_fract_z
 _atom_site_occupancy
  Ge  Ge1  1  0.44147751  0.59252095  0.42124176  1.0
  Ge  Ge2  1  0.00000000  0.00000000  0.00000000  1.0
  O  O1  1  0.00000000  0.70910430  0.76556796  1.0
  O  O2  1  0.34784764  0.79094791  0.36578280  1.0
  O  O3  1  0.00000000  0.25596309  0.24647817  1.0
  O  O4  1  0.62178528  0.11693287  0.81154656  1.0
