# generated using pymatgen
data_H3BrO
_symmetry_space_group_name_H-M   'P 1'
_cell_length_a   7.11670637
_cell_length_b   4.19423676
_cell_length_c   4.77244711
_cell_angle_alpha   70.58881378
_cell_angle_beta   60.00545502
_cell_angle_gamma   66.24931335
_symmetry_Int_Tables_number   1
_chemical_formula_structural   H3BrO
_chemical_formula_sum   'H3 Br1 O1'
_cell_volume   111.37348038
_cell_formula_units_Z   1
loop_
 _symmetry_equiv_pos_site_id
 _symmetry_equiv_pos_as_xyz
  1  'x, y, z'
loop_
 _atom_site_type_symbol
 _atom_site_label
 _atom_site_symmetry_multiplicity
 _atom_site_fract_x
 _atom_site_fract_y
 _atom_site_fract_z
 _atom_site_occupancy
  H  H1  1  0.32389796  0.64529788  0.22017464  1.0
  H  H2  1  0.33668819  0.38527840  0.58782649  1.0
  H  H3  1  0.63541728  0.12248755  0.27247709  1.0
  Br  Br1  1  0.00000000  0.00000000  0.00000000  1.0
  O  O1  1  0.61182284  0.44219193  0.34241825  1.0
