# generated using pymatgen
data_H3W
_symmetry_space_group_name_H-M   'P 1'
_cell_length_a   2.08239460
_cell_length_b   2.85474038
_cell_length_c   2.86765337
_cell_angle_alpha   89.88602448
_cell_angle_beta   90.10143280
_cell_angle_gamma   96.80696869
_symmetry_Int_Tables_number   1
_chemical_formula_structural   H3W
_chemical_formula_sum   'H3 W1'
_cell_volume   16.92710876
_cell_formula_units_Z   1
loop_
 _symmetry_equiv_pos_site_id
 _symmetry_equiv_pos_as_xyz
  1  'x, y, z'
loop_
 _atom_site_type_symbol
 _atom_site_label
 _atom_site_symmetry_multiplicity
 _atom_site_fract_x
 _atom_site_fract_y
 _atom_site_fract_z
 _atom_site_occupancy
  H  H1  1  0.57294452  0.45705724  0.00000000  1.0
  H  H2  1  0.46355829  0.00000000  0.38265848  1.0
  H  H3  1  0.00000000  0.39104968  0.43659058  1.0
  W  W1  1  0.00000000  0.00000000  0.00000000  1.0
