# generated using pymatgen
data_HCN2
_symmetry_space_group_name_H-M   'P 1'
_cell_length_a   3.76914683
_cell_length_b   5.26522599
_cell_length_c   5.51856041
_cell_angle_alpha   40.26586398
_cell_angle_beta   40.15273568
_cell_angle_gamma   46.67793215
_symmetry_Int_Tables_number   1
_chemical_formula_structural   HCN2
_chemical_formula_sum   'H1 C1 N2'
_cell_volume   44.23200136
_cell_formula_units_Z   1
loop_
 _symmetry_equiv_pos_site_id
 _symmetry_equiv_pos_as_xyz
  1  'x, y, z'
loop_
 _atom_site_type_symbol
 _atom_site_label
 _atom_site_symmetry_multiplicity
 _atom_site_fract_x
 _atom_site_fract_y
 _atom_site_fract_z
 _atom_site_occupancy
  H  H0  1  0.05611922  0.04587052  0.95416447  1.0
  C  C1  1  0.48759970  0.42606149  0.58216322  1.0
  N  N2  1  0.66600092  0.63546462  0.47853409  1.0
  N  N3  1  0.33450296  0.22709368  0.63793745  1.0
