# generated using pymatgen
data_HfAlCu2
_symmetry_space_group_name_H-M   'P 1'
_cell_length_a   4.56407309
_cell_length_b   4.74264526
_cell_length_c   4.87059546
_cell_angle_alpha   63.67126846
_cell_angle_beta   62.45866776
_cell_angle_gamma   57.48502731
_symmetry_Int_Tables_number   1
_chemical_formula_structural   HfAlCu2
_chemical_formula_sum   'Hf1 Al1 Cu2'
_cell_volume   76.10010037
_cell_formula_units_Z   1
loop_
 _symmetry_equiv_pos_site_id
 _symmetry_equiv_pos_as_xyz
  1  'x, y, z'
loop_
 _atom_site_type_symbol
 _atom_site_label
 _atom_site_symmetry_multiplicity
 _atom_site_fract_x
 _atom_site_fract_y
 _atom_site_fract_z
 _atom_site_occupancy
  Hf  Hf1  1  0.46842626  0.50634521  0.47640190  1.0
  Al  Al1  1  0.00000000  0.00000000  0.00000000  1.0
  Cu  Cu1  1  0.28320506  0.26761240  0.23047921  1.0
  Cu  Cu2  1  0.71437901  0.76121116  0.73645192  1.0
