# generated using pymatgen
data_HfCd
_symmetry_space_group_name_H-M   'P 1'
_cell_length_a   3.38868427
_cell_length_b   3.38953495
_cell_length_c   9.46467304
_cell_angle_alpha   73.91060638
_cell_angle_beta   88.05495453
_cell_angle_gamma   90.50477600
_symmetry_Int_Tables_number   1
_chemical_formula_structural   HfCd
_chemical_formula_sum   'Hf2 Cd2'
_cell_volume   104.37468021
_cell_formula_units_Z   2
loop_
 _symmetry_equiv_pos_site_id
 _symmetry_equiv_pos_as_xyz
  1  'x, y, z'
loop_
 _atom_site_type_symbol
 _atom_site_label
 _atom_site_symmetry_multiplicity
 _atom_site_fract_x
 _atom_site_fract_y
 _atom_site_fract_z
 _atom_site_occupancy
  Hf  Hf1  1  0.80916351  0.69802070  0.87037146  1.0
  Hf  Hf2  1  0.27969921  0.35574943  0.17664656  1.0
  Cd  Cd1  1  0.72326607  0.81443202  0.43970612  1.0
  Cd  Cd2  1  0.47807240  0.36720705  0.80546415  1.0
