# generated using pymatgen
data_HfCu2Te3
_symmetry_space_group_name_H-M   'P 1'
_cell_length_a   4.30268049
_cell_length_b   9.25003910
_cell_length_c   13.21560097
_cell_angle_alpha   106.46016693
_cell_angle_beta   104.86619568
_cell_angle_gamma   96.98467255
_symmetry_Int_Tables_number   1
_chemical_formula_structural   HfCu2Te3
_chemical_formula_sum   'Hf2 Cu4 Te6'
_cell_volume   476.70813026
_cell_formula_units_Z   2
loop_
 _symmetry_equiv_pos_site_id
 _symmetry_equiv_pos_as_xyz
  1  'x, y, z'
loop_
 _atom_site_type_symbol
 _atom_site_label
 _atom_site_symmetry_multiplicity
 _atom_site_fract_x
 _atom_site_fract_y
 _atom_site_fract_z
 _atom_site_occupancy
  Hf  Hf1  1  0.31247854  0.00000000  0.00000000  1.0
  Hf  Hf2  1  0.15102008  0.95385569  0.64393365  1.0
  Cu  Cu1  1  0.62374657  0.43379456  0.15766647  1.0
  Cu  Cu2  1  0.16628489  0.63472807  0.52490199  1.0
  Cu  Cu3  1  0.00000000  0.14019319  0.00000000  1.0
  Cu  Cu4  1  0.95546097  0.85894120  0.83407950  1.0
  Te  Te1  1  0.63855076  0.85124385  0.35376424  1.0
  Te  Te2  1  0.80450350  0.00000000  0.84676981  1.0
  Te  Te3  1  0.31022584  0.10981017  0.19291013  1.0
  Te  Te4  1  0.30767915  0.67160368  0.28505471  1.0
  Te  Te5  1  0.58075356  0.78700560  0.78611457  1.0
  Te  Te6  1  0.00000000  0.93110788  0.21486035  1.0
