# generated using pymatgen
data_HfVF6
_symmetry_space_group_name_H-M   'P 1'
_cell_length_a   4.58161229
_cell_length_b   5.07481110
_cell_length_c   5.68673532
_cell_angle_alpha   68.59663696
_cell_angle_beta   69.49445035
_cell_angle_gamma   59.31131288
_symmetry_Int_Tables_number   1
_chemical_formula_structural   HfVF6
_chemical_formula_sum   'Hf1 V1 F6'
_cell_volume   103.61645107
_cell_formula_units_Z   1
loop_
 _symmetry_equiv_pos_site_id
 _symmetry_equiv_pos_as_xyz
  1  'x, y, z'
loop_
 _atom_site_type_symbol
 _atom_site_label
 _atom_site_symmetry_multiplicity
 _atom_site_fract_x
 _atom_site_fract_y
 _atom_site_fract_z
 _atom_site_occupancy
  Hf  Hf0  1  0.99373407  0.96012943  0.01961456  1.0
  V  V1  1  0.71941638  0.45363221  0.47322792  1.0
  F  F2  1  0.60167396  0.90323539  0.33542840  1.0
  F  F3  1  0.27672653  0.63629127  0.26041848  1.0
  F  F4  1  0.29547886  0.21000712  0.91447948  1.0
  F  F5  1  0.83428888  0.22678164  0.24288742  1.0
  F  F6  1  0.02459226  0.93744798  0.65457040  1.0
  F  F7  1  0.68047374  0.46195291  0.83487697  1.0
