# generated using pymatgen
data_HfVF6
_symmetry_space_group_name_H-M   'P 1'
_cell_length_a   5.82043789
_cell_length_b   5.77410693
_cell_length_c   5.80157389
_cell_angle_alpha   59.88505552
_cell_angle_beta   59.89708111
_cell_angle_gamma   59.87678146
_symmetry_Int_Tables_number   1
_chemical_formula_structural   HfVF6
_chemical_formula_sum   'Hf1 V1 F6'
_cell_volume   137.51483305
_cell_formula_units_Z   1
loop_
 _symmetry_equiv_pos_site_id
 _symmetry_equiv_pos_as_xyz
  1  'x, y, z'
loop_
 _atom_site_type_symbol
 _atom_site_label
 _atom_site_symmetry_multiplicity
 _atom_site_fract_x
 _atom_site_fract_y
 _atom_site_fract_z
 _atom_site_occupancy
  Hf  Hf0  1  0.99622828  0.02109458  0.01980528  1.0
  V  V1  1  0.49611428  0.52066726  0.51996873  1.0
  F  F2  1  0.73818437  0.79236156  0.29899990  1.0
  F  F3  1  0.23321371  0.80569035  0.26935276  1.0
  F  F4  1  0.25376282  0.24995288  0.73917936  1.0
  F  F5  1  0.76103526  0.30801426  0.21964576  1.0
  F  F6  1  0.23155801  0.73381559  0.82030722  1.0
  F  F7  1  0.75876056  0.23672269  0.77067658  1.0
