# generated using pymatgen
data_HfZrCo2
_symmetry_space_group_name_H-M   'P 1'
_cell_length_a   4.29156160
_cell_length_b   3.64004540
_cell_length_c   4.09454775
_cell_angle_alpha   54.27568817
_cell_angle_beta   48.23471451
_cell_angle_gamma   56.77786255
_symmetry_Int_Tables_number   1
_chemical_formula_structural   HfZrCo2
_chemical_formula_sum   'Hf1 Zr1 Co2'
_cell_volume   37.37299433
_cell_formula_units_Z   1
loop_
 _symmetry_equiv_pos_site_id
 _symmetry_equiv_pos_as_xyz
  1  'x, y, z'
loop_
 _atom_site_type_symbol
 _atom_site_label
 _atom_site_symmetry_multiplicity
 _atom_site_fract_x
 _atom_site_fract_y
 _atom_site_fract_z
 _atom_site_occupancy
  Hf  Hf1  1  0.62363750  0.72407269  0.64716983  1.0
  Zr  Zr1  1  0.00000000  0.00000000  0.00000000  1.0
  Co  Co1  1  0.85305560  0.83991355  0.66584063  1.0
  Co  Co2  1  0.29143471  0.10911256  0.16701531  1.0
