# generated using pymatgen
data_HgPt3
_symmetry_space_group_name_H-M   'P 1'
_cell_length_a   2.24509478
_cell_length_b   2.20830894
_cell_length_c   1.58271909
_cell_angle_alpha   104.20989990
_cell_angle_beta   95.91542816
_cell_angle_gamma   108.67622375
_symmetry_Int_Tables_number   1
_chemical_formula_structural   HgPt3
_chemical_formula_sum   'Hg1 Pt3'
_cell_volume   7.06385944
_cell_formula_units_Z   1
loop_
 _symmetry_equiv_pos_site_id
 _symmetry_equiv_pos_as_xyz
  1  'x, y, z'
loop_
 _atom_site_type_symbol
 _atom_site_label
 _atom_site_symmetry_multiplicity
 _atom_site_fract_x
 _atom_site_fract_y
 _atom_site_fract_z
 _atom_site_occupancy
  Hg  Hg1  1  0.00000000  0.00000000  0.00000000  1.0
  Pt  Pt1  1  0.00000000  0.43307048  0.47970903  1.0
  Pt  Pt2  1  0.52430886  0.61634314  0.00000000  1.0
  Pt  Pt3  1  0.46345043  0.00000000  0.23143977  1.0
