# generated using pymatgen
data_HoC
_symmetry_space_group_name_H-M   'P 1'
_cell_length_a   2.59658360
_cell_length_b   2.63148308
_cell_length_c   1.96367550
_cell_angle_alpha   67.52962494
_cell_angle_beta   71.04062653
_cell_angle_gamma   66.10649109
_symmetry_Int_Tables_number   1
_chemical_formula_structural   HoC
_chemical_formula_sum   'Ho1 C1'
_cell_volume   11.10415577
_cell_formula_units_Z   1
loop_
 _symmetry_equiv_pos_site_id
 _symmetry_equiv_pos_as_xyz
  1  'x, y, z'
loop_
 _atom_site_type_symbol
 _atom_site_label
 _atom_site_symmetry_multiplicity
 _atom_site_fract_x
 _atom_site_fract_y
 _atom_site_fract_z
 _atom_site_occupancy
  Ho  Ho1  1  0.00000000  0.00000000  0.00000000  1.0
  C  C1  1  0.35207748  0.37758750  0.37370202  1.0
