# generated using pymatgen
data_HoZnRh
_symmetry_space_group_name_H-M   'P 1'
_cell_length_a   4.87956619
_cell_length_b   6.93019199
_cell_length_c   7.92505836
_cell_angle_alpha   98.48918915
_cell_angle_beta   88.88766479
_cell_angle_gamma   94.94854736
_symmetry_Int_Tables_number   1
_chemical_formula_structural   HoZnRh
_chemical_formula_sum   'Ho4 Zn4 Rh4'
_cell_volume   264.06609299
_cell_formula_units_Z   4
loop_
 _symmetry_equiv_pos_site_id
 _symmetry_equiv_pos_as_xyz
  1  'x, y, z'
loop_
 _atom_site_type_symbol
 _atom_site_label
 _atom_site_symmetry_multiplicity
 _atom_site_fract_x
 _atom_site_fract_y
 _atom_site_fract_z
 _atom_site_occupancy
  Ho  Ho1  1  0.20163143  0.72630781  0.73609829  1.0
  Ho  Ho2  1  0.68021423  0.52683598  0.00000000  1.0
  Ho  Ho3  1  0.20883897  0.00000000  0.62851328  1.0
  Ho  Ho4  1  0.65898979  0.94104671  0.36854342  1.0
  Zn  Zn1  1  0.26375026  0.15300113  0.12725207  1.0
  Zn  Zn2  1  0.73571205  0.91887558  0.88592899  1.0
  Zn  Zn3  1  0.10613567  0.57637751  0.53180242  1.0
  Zn  Zn4  1  0.59156322  0.28443161  0.81533939  1.0
  Rh  Rh1  1  0.74880666  0.71864700  0.71736819  1.0
  Rh  Rh2  1  0.34880498  0.44690853  0.34763500  1.0
  Rh  Rh3  1  0.42882162  0.12806189  0.76873207  1.0
  Rh  Rh4  1  0.37686032  0.60235530  0.11495259  1.0
