# generated using pymatgen
data_HPt3
_symmetry_space_group_name_H-M   'P 1'
_cell_length_a   1.26731133
_cell_length_b   3.24752307
_cell_length_c   3.06419396
_cell_angle_alpha   88.31383514
_cell_angle_beta   90.77202606
_cell_angle_gamma   99.09439850
_symmetry_Int_Tables_number   1
_chemical_formula_structural   HPt3
_chemical_formula_sum   'H1 Pt3'
_cell_volume   12.44664673
_cell_formula_units_Z   1
loop_
 _symmetry_equiv_pos_site_id
 _symmetry_equiv_pos_as_xyz
  1  'x, y, z'
loop_
 _atom_site_type_symbol
 _atom_site_label
 _atom_site_symmetry_multiplicity
 _atom_site_fract_x
 _atom_site_fract_y
 _atom_site_fract_z
 _atom_site_occupancy
  H  H1  1  0.00000000  0.00000000  0.00000000  1.0
  Pt  Pt1  1  0.00000000  0.57641810  0.46235469  1.0
  Pt  Pt2  1  0.35913378  0.39831990  0.00000000  1.0
  Pt  Pt3  1  0.62639654  0.00000000  0.53890187  1.0
