# generated using pymatgen
data_HSBr
_symmetry_space_group_name_H-M   'P 1'
_cell_length_a   8.35354996
_cell_length_b   5.80325270
_cell_length_c   7.20084095
_cell_angle_alpha   81.78490448
_cell_angle_beta   90.63948059
_cell_angle_gamma   104.44670105
_symmetry_Int_Tables_number   1
_chemical_formula_structural   HSBr
_chemical_formula_sum   'H4 S4 Br4'
_cell_volume   334.46476643
_cell_formula_units_Z   4
loop_
 _symmetry_equiv_pos_site_id
 _symmetry_equiv_pos_as_xyz
  1  'x, y, z'
loop_
 _atom_site_type_symbol
 _atom_site_label
 _atom_site_symmetry_multiplicity
 _atom_site_fract_x
 _atom_site_fract_y
 _atom_site_fract_z
 _atom_site_occupancy
  H  H0  1  0.95755148  0.76720393  0.44497800  1.0
  H  H1  1  0.00000000  0.38343069  0.71153522  1.0
  H  H2  1  0.27111599  0.67316592  0.76522636  1.0
  H  H3  1  0.63507235  0.29226285  0.12078604  1.0
  S  S4  1  0.52141261  0.96522522  0.60590059  1.0
  S  S5  1  0.10591120  0.00000000  0.34485003  1.0
  S  S6  1  0.49141636  0.39177591  0.72810513  1.0
  S  S7  1  0.79430193  0.25627157  0.64168960  1.0
  Br  Br8  1  0.66034985  0.77855468  0.00000000  1.0
  Br  Br9  1  0.51363862  0.47748429  0.85770267  1.0
  Br  Br10  1  0.13389054  0.78060293  0.85949254  1.0
  Br  Br11  1  0.91428137  0.15255600  0.11852607  1.0
