# generated using pymatgen
data_In3PbCl6
_symmetry_space_group_name_H-M   'P 1'
_cell_length_a   7.12758635
_cell_length_b   7.11878202
_cell_length_c   10.74129148
_cell_angle_alpha   88.90862228
_cell_angle_beta   91.35197973
_cell_angle_gamma   144.40616689
_symmetry_Int_Tables_number   1
_chemical_formula_structural   In3PbCl6
_chemical_formula_sum   'In3 Pb1 Cl6'
_cell_volume   317.12697995
_cell_formula_units_Z   1
loop_
 _symmetry_equiv_pos_site_id
 _symmetry_equiv_pos_as_xyz
  1  'x, y, z'
loop_
 _atom_site_type_symbol
 _atom_site_label
 _atom_site_symmetry_multiplicity
 _atom_site_fract_x
 _atom_site_fract_y
 _atom_site_fract_z
 _atom_site_occupancy
  In  In0  1  0.72728906  0.31236896  0.73884277  1.0
  In  In1  1  0.24699978  0.78086990  0.24687682  1.0
  In  In2  1  0.98641190  0.04037540  0.46742546  1.0
  Pb  Pb3  1  0.99640887  0.04902406  0.96980393  1.0
  Cl  Cl4  1  0.61037348  0.42142350  0.42316419  1.0
  Cl  Cl5  1  0.36221446  0.68693987  0.90668091  1.0
  Cl  Cl6  1  0.64327273  0.41213352  0.01238791  1.0
  Cl  Cl7  1  0.36840272  0.66803359  0.50681354  1.0
  Cl  Cl8  1  0.06479737  0.97953818  0.71684024  1.0
  Cl  Cl9  1  0.91110292  0.12513446  0.22243318  1.0
