# generated using pymatgen
data_In
_symmetry_space_group_name_H-M   'P 1'
_cell_length_a   4.85581636
_cell_length_b   4.57418919
_cell_length_c   4.73096800
_cell_angle_alpha   61.43575668
_cell_angle_beta   55.79646683
_cell_angle_gamma   70.03560638
_symmetry_Int_Tables_number   1
_chemical_formula_structural   In
_chemical_formula_sum   In2
_cell_volume   75.94624872
_cell_formula_units_Z   2
loop_
 _symmetry_equiv_pos_site_id
 _symmetry_equiv_pos_as_xyz
  1  'x, y, z'
loop_
 _atom_site_type_symbol
 _atom_site_label
 _atom_site_symmetry_multiplicity
 _atom_site_fract_x
 _atom_site_fract_y
 _atom_site_fract_z
 _atom_site_occupancy
  In  In1  1  0.23818582  0.25424686  0.23559704  1.0
  In  In2  1  0.00000000  0.00000000  0.00000000  1.0
