# generated using pymatgen
data_InBrO
_symmetry_space_group_name_H-M   'P 1'
_cell_length_a   3.69786763
_cell_length_b   3.54015899
_cell_length_c   8.40500259
_cell_angle_alpha   86.24241638
_cell_angle_beta   87.08774567
_cell_angle_gamma   83.66556549
_symmetry_Int_Tables_number   1
_chemical_formula_structural   InBrO
_chemical_formula_sum   'In2 Br2 O2'
_cell_volume   109.01798824
_cell_formula_units_Z   2
loop_
 _symmetry_equiv_pos_site_id
 _symmetry_equiv_pos_as_xyz
  1  'x, y, z'
loop_
 _atom_site_type_symbol
 _atom_site_label
 _atom_site_symmetry_multiplicity
 _atom_site_fract_x
 _atom_site_fract_y
 _atom_site_fract_z
 _atom_site_occupancy
  In  In1  1  0.71394140  0.81532633  0.88316035  1.0
  In  In2  1  0.16421688  0.22692573  0.00000000  1.0
  Br  Br1  1  0.18573993  0.65034378  0.65424782  1.0
  Br  Br2  1  0.79547226  0.35373151  0.18311411  1.0
  O  O1  1  0.36759818  0.77455550  0.00000000  1.0
  O  O2  1  0.79628044  0.12124404  0.96481073  1.0
