# generated using pymatgen
data_InHO2
_symmetry_space_group_name_H-M   'P 1'
_cell_length_a   3.67649412
_cell_length_b   5.39416027
_cell_length_c   5.21726131
_cell_angle_alpha   83.72924042
_cell_angle_beta   93.64158630
_cell_angle_gamma   92.74558258
_symmetry_Int_Tables_number   1
_chemical_formula_structural   InHO2
_chemical_formula_sum   'In2 H2 O4'
_cell_volume   102.55236674
_cell_formula_units_Z   2
loop_
 _symmetry_equiv_pos_site_id
 _symmetry_equiv_pos_as_xyz
  1  'x, y, z'
loop_
 _atom_site_type_symbol
 _atom_site_label
 _atom_site_symmetry_multiplicity
 _atom_site_fract_x
 _atom_site_fract_y
 _atom_site_fract_z
 _atom_site_occupancy
  In  In1  1  0.00000000  0.37451953  0.10478395  1.0
  In  In2  1  0.27263576  0.25578326  0.36440006  1.0
  H  H1  1  0.00000000  0.76271200  0.43998900  1.0
  H  H2  1  0.70194811  0.17755854  0.91816646  1.0
  O  O1  1  0.12216583  0.36042967  0.64054227  1.0
  O  O2  1  0.72822684  0.37643319  0.22148174  1.0
  O  O3  1  0.00000000  0.92126417  0.47234049  1.0
  O  O4  1  0.19938248  0.00000000  0.90785766  1.0
