# generated using pymatgen
data_InPbCl3
_symmetry_space_group_name_H-M   'P 1'
_cell_length_a   7.85578116
_cell_length_b   5.47760477
_cell_length_c   12.75155750
_cell_angle_alpha   76.87098664
_cell_angle_beta   101.32804253
_cell_angle_gamma   131.18186140
_symmetry_Int_Tables_number   1
_chemical_formula_structural   InPbCl3
_chemical_formula_sum   'In2 Pb2 Cl6'
_cell_volume   401.35486042
_cell_formula_units_Z   2
loop_
 _symmetry_equiv_pos_site_id
 _symmetry_equiv_pos_as_xyz
  1  'x, y, z'
loop_
 _atom_site_type_symbol
 _atom_site_label
 _atom_site_symmetry_multiplicity
 _atom_site_fract_x
 _atom_site_fract_y
 _atom_site_fract_z
 _atom_site_occupancy
  In  In0  1  0.57945684  0.08486131  0.85285422  1.0
  In  In1  1  0.39526748  0.69794458  0.16615565  1.0
  Pb  Pb2  1  0.03292992  0.02449925  0.68548329  1.0
  Pb  Pb3  1  0.03121295  0.95713395  0.11369182  1.0
  Cl  Cl4  1  0.53375543  0.52107775  0.70892464  1.0
  Cl  Cl5  1  0.07555413  0.76074194  0.89041901  1.0
  Cl  Cl6  1  0.58234417  0.31884230  0.05467351  1.0
  Cl  Cl7  1  0.24008458  0.85734086  0.28821997  1.0
  Cl  Cl8  1  0.06486634  0.65002160  0.61192836  1.0
  Cl  Cl9  1  0.81385653  0.96132531  0.25556169  1.0
