# generated using pymatgen
data_K2As2Pd
_symmetry_space_group_name_H-M   'P 1'
_cell_length_a   5.43659019
_cell_length_b   5.51318741
_cell_length_c   6.03399467
_cell_angle_alpha   107.99870300
_cell_angle_beta   97.30662537
_cell_angle_gamma   95.88899994
_symmetry_Int_Tables_number   1
_chemical_formula_structural   K2As2Pd
_chemical_formula_sum   'K4 As4 Pd2'
_cell_volume   168.66812566
_cell_formula_units_Z   2
loop_
 _symmetry_equiv_pos_site_id
 _symmetry_equiv_pos_as_xyz
  1  'x, y, z'
loop_
 _atom_site_type_symbol
 _atom_site_label
 _atom_site_symmetry_multiplicity
 _atom_site_fract_x
 _atom_site_fract_y
 _atom_site_fract_z
 _atom_site_occupancy
  K  K1  1  0.68948597  0.13030440  0.88901913  1.0
  K  K2  1  0.27320409  0.68419480  0.20818135  1.0
  K  K3  1  0.72666669  0.80795860  0.64600068  1.0
  K  K4  1  0.42202985  0.34704933  0.51880163  1.0
  As  As1  1  0.31955883  0.74430084  0.77490151  1.0
  As  As2  1  0.88159978  0.12186229  0.26802444  1.0
  As  As3  1  0.93390286  0.85953575  0.13244659  1.0
  As  As4  1  0.20062804  0.00000000  0.74694443  1.0
  Pd  Pd1  1  0.00000000  0.00000000  0.00000000  1.0
  Pd  Pd2  1  0.59478205  0.00000000  0.00000000  1.0
