# generated using pymatgen
data_K2NaVF6
_symmetry_space_group_name_H-M   'P 1'
_cell_length_a   6.73838139
_cell_length_b   5.79314899
_cell_length_c   5.86412001
_cell_angle_alpha   57.67037964
_cell_angle_beta   61.28008270
_cell_angle_gamma   59.32184982
_symmetry_Int_Tables_number   1
_chemical_formula_structural   K2NaVF6
_chemical_formula_sum   'K2 Na1 V1 F6'
_cell_volume   159.42128504
_cell_formula_units_Z   1
loop_
 _symmetry_equiv_pos_site_id
 _symmetry_equiv_pos_as_xyz
  1  'x, y, z'
loop_
 _atom_site_type_symbol
 _atom_site_label
 _atom_site_symmetry_multiplicity
 _atom_site_fract_x
 _atom_site_fract_y
 _atom_site_fract_z
 _atom_site_occupancy
  K  K1  1  0.42291433  0.40201944  0.35980809  1.0
  K  K2  1  0.83361310  0.81076002  0.69064260  1.0
  Na  Na1  1  0.40455490  0.60493141  0.43119824  1.0
  V  V1  1  0.00000000  0.00000000  0.00000000  1.0
  F  F1  1  0.75515455  0.69881314  0.18943730  1.0
  F  F2  1  0.64741403  0.27019328  0.30597723  1.0
  F  F3  1  0.84683686  0.00000000  0.79344249  1.0
  F  F4  1  0.00000000  0.90220833  0.69477558  1.0
  F  F5  1  0.22295719  0.83426940  0.18846482  1.0
  F  F6  1  0.23932610  0.23091523  0.84565878  1.0
