# generated using pymatgen
data_K2O
_symmetry_space_group_name_H-M   'P 1'
_cell_length_a   7.03203869
_cell_length_b   3.50552487
_cell_length_c   5.69487333
_cell_angle_alpha   93.09542084
_cell_angle_beta   77.34679413
_cell_angle_gamma   92.97249603
_symmetry_Int_Tables_number   1
_chemical_formula_structural   K2O
_chemical_formula_sum   'K4 O2'
_cell_volume   136.65951185
_cell_formula_units_Z   2
loop_
 _symmetry_equiv_pos_site_id
 _symmetry_equiv_pos_as_xyz
  1  'x, y, z'
loop_
 _atom_site_type_symbol
 _atom_site_label
 _atom_site_symmetry_multiplicity
 _atom_site_fract_x
 _atom_site_fract_y
 _atom_site_fract_z
 _atom_site_occupancy
  K  K1  1  0.32985532  0.97034860  0.54261214  1.0
  K  K2  1  0.27727833  0.53394979  0.00000000  1.0
  K  K3  1  0.76143849  0.68405825  0.00000000  1.0
  K  K4  1  0.78860939  0.00000000  0.54472214  1.0
  O  O1  1  0.00000000  0.00000000  0.00000000  1.0
  O  O2  1  0.44200161  0.48086190  0.72004968  1.0
