# generated using pymatgen
data_K2PtBr6
_symmetry_space_group_name_H-M   'P 1'
_cell_length_a   6.67098999
_cell_length_b   6.86760044
_cell_length_c   6.22879267
_cell_angle_alpha   75.71826172
_cell_angle_beta   68.78505707
_cell_angle_gamma   70.02581787
_symmetry_Int_Tables_number   1
_chemical_formula_structural   K2PtBr6
_chemical_formula_sum   'K2 Pt1 Br6'
_cell_volume   247.54328862
_cell_formula_units_Z   1
loop_
 _symmetry_equiv_pos_site_id
 _symmetry_equiv_pos_as_xyz
  1  'x, y, z'
loop_
 _atom_site_type_symbol
 _atom_site_label
 _atom_site_symmetry_multiplicity
 _atom_site_fract_x
 _atom_site_fract_y
 _atom_site_fract_z
 _atom_site_occupancy
  K  K1  1  0.16846380  0.36357605  0.30734509  1.0
  K  K2  1  0.82923096  0.81686991  0.78938890  1.0
  Pt  Pt1  1  0.00000000  0.00000000  0.00000000  1.0
  Br  Br1  1  0.68776119  0.19001940  0.15498832  1.0
  Br  Br2  1  0.80248785  0.71219802  0.27242321  1.0
  Br  Br3  1  0.60705191  0.26744628  0.87504292  1.0
  Br  Br4  1  0.23884881  0.34215972  0.81752777  1.0
  Br  Br5  1  0.22558790  0.77636302  0.26290482  1.0
  Br  Br6  1  0.28957033  0.77492571  0.77107793  1.0
