# generated using pymatgen
data_K2RbMn2F7
_symmetry_space_group_name_H-M   'P 1'
_cell_length_a   9.72015572
_cell_length_b   12.28936672
_cell_length_c   11.00882816
_cell_angle_alpha   152.45497131
_cell_angle_beta   154.21514893
_cell_angle_gamma   35.49470139
_symmetry_Int_Tables_number   1
_chemical_formula_structural   K2RbMn2F7
_chemical_formula_sum   'K2 Rb1 Mn2 F7'
_cell_volume   263.71977440
_cell_formula_units_Z   1
loop_
 _symmetry_equiv_pos_site_id
 _symmetry_equiv_pos_as_xyz
  1  'x, y, z'
loop_
 _atom_site_type_symbol
 _atom_site_label
 _atom_site_symmetry_multiplicity
 _atom_site_fract_x
 _atom_site_fract_y
 _atom_site_fract_z
 _atom_site_occupancy
  K  K0  1  0.51584256  0.36855924  0.00000000  1.0
  K  K1  1  0.71184415  0.53060025  0.00000000  1.0
  Rb  Rb2  1  0.24329650  0.29007635  0.00000000  1.0
  Mn  Mn3  1  0.91038597  0.92373240  0.00000000  1.0
  Mn  Mn4  1  0.20890918  0.25915152  0.00000000  1.0
  F  F5  1  0.39303580  0.90931821  0.65331948  1.0
  F  F6  1  0.94005799  0.21448472  0.73724687  1.0
  F  F7  1  0.00000000  0.10992613  0.00000000  1.0
  F  F8  1  0.79734123  0.65239823  0.00000000  1.0
  F  F9  1  0.00000000  0.00000000  0.00000000  1.0
  F  F10  1  0.00000000  0.60888612  0.64053613  1.0
  F  F11  1  0.68138963  0.00000000  0.27485794  1.0
