# generated using pymatgen
data_K2RbMnF8
_symmetry_space_group_name_H-M   'P 1'
_cell_length_a   9.54366779
_cell_length_b   11.75946140
_cell_length_c   10.40059853
_cell_angle_alpha   154.12606812
_cell_angle_beta   150.00021362
_cell_angle_gamma   29.35226822
_symmetry_Int_Tables_number   1
_chemical_formula_structural   K2RbMnF8
_chemical_formula_sum   'K2 Rb1 Mn1 F8'
_cell_volume   230.71745636
_cell_formula_units_Z   1
loop_
 _symmetry_equiv_pos_site_id
 _symmetry_equiv_pos_as_xyz
  1  'x, y, z'
loop_
 _atom_site_type_symbol
 _atom_site_label
 _atom_site_symmetry_multiplicity
 _atom_site_fract_x
 _atom_site_fract_y
 _atom_site_fract_z
 _atom_site_occupancy
  K  K0  1  0.29098898  0.41748720  0.00000000  1.0
  K  K1  1  0.68822914  0.85120416  0.00000000  1.0
  Rb  Rb2  1  0.60406315  0.61113572  0.00000000  1.0
  Mn  Mn3  1  0.83603561  0.92007685  0.00000000  1.0
  F  F4  1  0.22737005  0.20545089  0.00000000  1.0
  F  F5  1  0.19320288  0.80135453  0.47893640  1.0
  F  F6  1  0.94681990  0.34724802  0.25538051  1.0
  F  F7  1  0.00000000  0.13773006  0.00000000  1.0
  F  F8  1  0.76208144  0.71181661  0.00000000  1.0
  F  F9  1  0.00000000  0.00000000  0.00000000  1.0
  F  F10  1  0.00000000  0.65642518  0.41384345  1.0
  F  F11  1  0.52982926  0.00000000  0.64139956  1.0
