# generated using pymatgen
data_K2ReBr6
_symmetry_space_group_name_H-M   'P 1'
_cell_length_a   7.65970612
_cell_length_b   6.98924780
_cell_length_c   6.04915524
_cell_angle_alpha   76.24575806
_cell_angle_beta   70.29409790
_cell_angle_gamma   72.59272766
_symmetry_Int_Tables_number   1
_chemical_formula_structural   K2ReBr6
_chemical_formula_sum   'K2 Re1 Br6'
_cell_volume   287.51942038
_cell_formula_units_Z   1
loop_
 _symmetry_equiv_pos_site_id
 _symmetry_equiv_pos_as_xyz
  1  'x, y, z'
loop_
 _atom_site_type_symbol
 _atom_site_label
 _atom_site_symmetry_multiplicity
 _atom_site_fract_x
 _atom_site_fract_y
 _atom_site_fract_z
 _atom_site_occupancy
  K  K1  1  0.23603338  0.18911117  0.28544265  1.0
  K  K2  1  0.70013046  0.75614178  0.75994122  1.0
  Re  Re1  1  0.00000000  0.00000000  0.00000000  1.0
  Br  Br1  1  0.84745079  0.38544947  0.22830361  1.0
  Br  Br2  1  0.86377406  0.84145594  0.00000000  1.0
  Br  Br3  1  0.67008197  0.25611299  0.70639539  1.0
  Br  Br4  1  0.39943621  0.45723122  0.75297749  1.0
  Br  Br5  1  0.15572372  0.74768066  0.31582901  1.0
  Br  Br6  1  0.43375257  0.56407136  0.91265404  1.0
