# generated using pymatgen
data_K3CoF6
_symmetry_space_group_name_H-M   'P 1'
_cell_length_a   5.78070263
_cell_length_b   6.32585256
_cell_length_c   6.21342870
_cell_angle_alpha   61.89446654
_cell_angle_beta   64.09878987
_cell_angle_gamma   61.10379781
_symmetry_Int_Tables_number   1
_chemical_formula_structural   K3CoF6
_chemical_formula_sum   'K3 Co1 F6'
_cell_volume   168.90723310
_cell_formula_units_Z   1
loop_
 _symmetry_equiv_pos_site_id
 _symmetry_equiv_pos_as_xyz
  1  'x, y, z'
loop_
 _atom_site_type_symbol
 _atom_site_label
 _atom_site_symmetry_multiplicity
 _atom_site_fract_x
 _atom_site_fract_y
 _atom_site_fract_z
 _atom_site_occupancy
  K  K0  1  0.22978337  0.26717914  0.24840744  1.0
  K  K1  1  0.72310456  0.73552550  0.78511196  1.0
  K  K2  1  0.47117017  0.49646204  0.52529012  1.0
  Co  Co3  1  0.97308695  0.99446934  0.02485652  1.0
  F  F4  1  0.76125667  0.24422497  0.20853318  1.0
  F  F5  1  0.18055708  0.74955645  0.83588426  1.0
  F  F6  1  0.25746938  0.85446805  0.17314916  1.0
  F  F7  1  0.68153555  0.12994442  0.87975440  1.0
  F  F8  1  0.13503651  0.24399239  0.73897477  1.0
  F  F9  1  0.81054935  0.74276607  0.31280145  1.0
