# generated using pymatgen
data_KBa2IO6
_symmetry_space_group_name_H-M   'P 1'
_cell_length_a   7.88134014
_cell_length_b   6.68295186
_cell_length_c   6.98063323
_cell_angle_alpha   68.76809613
_cell_angle_beta   81.67914582
_cell_angle_gamma   79.48056919
_symmetry_Int_Tables_number   1
_chemical_formula_structural   KBa2IO6
_chemical_formula_sum   'K1 Ba2 I1 O6'
_cell_volume   335.71577405
_cell_formula_units_Z   1
loop_
 _symmetry_equiv_pos_site_id
 _symmetry_equiv_pos_as_xyz
  1  'x, y, z'
loop_
 _atom_site_type_symbol
 _atom_site_label
 _atom_site_symmetry_multiplicity
 _atom_site_fract_x
 _atom_site_fract_y
 _atom_site_fract_z
 _atom_site_occupancy
  K  K0  1  0.54731204  0.31269974  0.50676644  1.0
  Ba  Ba1  1  0.38807855  0.11218653  0.31765431  1.0
  Ba  Ba2  1  0.72614305  0.70867736  0.59408650  1.0
  I  I3  1  0.03024574  0.99214469  0.98182037  1.0
  O  O4  1  0.49183198  0.33083606  0.09310748  1.0
  O  O5  1  0.22346155  0.73663556  0.86425072  1.0
  O  O6  1  0.20768321  0.88249504  0.30260692  1.0
  O  O7  1  0.73644004  0.15047199  0.75157554  1.0
  O  O8  1  0.16327239  0.25665029  0.81446799  1.0
  O  O9  1  0.73327612  0.85106418  0.22420730  1.0
