# generated using pymatgen
data_KBa2IO6
_symmetry_space_group_name_H-M   'P 1'
_cell_length_a   6.16886273
_cell_length_b   6.16144023
_cell_length_c   6.17481223
_cell_angle_alpha   59.24245519
_cell_angle_beta   59.83399843
_cell_angle_gamma   60.78672033
_symmetry_Int_Tables_number   1
_chemical_formula_structural   KBa2IO6
_chemical_formula_sum   'K1 Ba2 I1 O6'
_cell_volume   165.72391762
_cell_formula_units_Z   1
loop_
 _symmetry_equiv_pos_site_id
 _symmetry_equiv_pos_as_xyz
  1  'x, y, z'
loop_
 _atom_site_type_symbol
 _atom_site_label
 _atom_site_symmetry_multiplicity
 _atom_site_fract_x
 _atom_site_fract_y
 _atom_site_fract_z
 _atom_site_occupancy
  K  K0  1  0.50121708  0.46171099  0.50823959  1.0
  Ba  Ba1  1  0.25152621  0.20578563  0.26219920  1.0
  Ba  Ba2  1  0.75119376  0.71823922  0.75348022  1.0
  I  I3  1  0.00138928  0.96174845  0.00826075  1.0
  O  O4  1  0.79237772  0.15474804  0.24743614  1.0
  O  O5  1  0.21068324  0.76865187  0.76904966  1.0
  O  O6  1  0.17054705  0.68232656  0.26217543  1.0
  O  O7  1  0.83125341  0.24083200  0.75501988  1.0
  O  O8  1  0.26354789  0.12667956  0.85206690  1.0
  O  O9  1  0.73930021  0.79666294  0.16479634  1.0
