# generated using pymatgen
data_KBaNdW
_symmetry_space_group_name_H-M   'P 1'
_cell_length_a   8.63017218
_cell_length_b   5.94843091
_cell_length_c   3.41747453
_cell_angle_alpha   89.77394825
_cell_angle_beta   76.11231683
_cell_angle_gamma   69.81776558
_symmetry_Int_Tables_number   1
_chemical_formula_structural   KBaNdW
_chemical_formula_sum   'K1 Ba1 Nd1 W1'
_cell_volume   159.25402016
_cell_formula_units_Z   1
loop_
 _symmetry_equiv_pos_site_id
 _symmetry_equiv_pos_as_xyz
  1  'x, y, z'
loop_
 _atom_site_type_symbol
 _atom_site_label
 _atom_site_symmetry_multiplicity
 _atom_site_fract_x
 _atom_site_fract_y
 _atom_site_fract_z
 _atom_site_occupancy
  K  K0  1  0.73119293  0.59970969  0.76010755  1.0
  Ba  Ba1  1  0.36849830  0.28252968  0.04585245  1.0
  Nd  Nd2  1  0.03521964  0.94836513  0.07098984  1.0
  W  W3  1  0.32288256  0.80531394  0.53991724  1.0
