# generated using pymatgen
data_KBaNdW2
_symmetry_space_group_name_H-M   'P 1'
_cell_length_a   8.81693326
_cell_length_b   6.89921608
_cell_length_c   3.39710790
_cell_angle_alpha   78.23958779
_cell_angle_beta   91.71495906
_cell_angle_gamma   52.92009329
_symmetry_Int_Tables_number   1
_chemical_formula_structural   KBaNdW2
_chemical_formula_sum   'K1 Ba1 Nd1 W2'
_cell_volume   158.28099360
_cell_formula_units_Z   1
loop_
 _symmetry_equiv_pos_site_id
 _symmetry_equiv_pos_as_xyz
  1  'x, y, z'
loop_
 _atom_site_type_symbol
 _atom_site_label
 _atom_site_symmetry_multiplicity
 _atom_site_fract_x
 _atom_site_fract_y
 _atom_site_fract_z
 _atom_site_occupancy
  K  K0  1  0.65830303  0.68755926  0.90218030  1.0
  Ba  Ba1  1  0.20252919  0.22627642  0.19997282  1.0
  Nd  Nd2  1  0.99932936  0.92291643  0.84861899  1.0
  W  W3  1  0.39084406  0.47136187  0.59023076  1.0
  W  W4  1  0.62225536  0.20452471  0.21472895  1.0
