# generated using pymatgen
data_KDyO2
_symmetry_space_group_name_H-M   'P 1'
_cell_length_a   6.85249901
_cell_length_b   7.28401709
_cell_length_c   7.11441422
_cell_angle_alpha   29.66767120
_cell_angle_beta   30.93733025
_cell_angle_gamma   33.08542252
_symmetry_Int_Tables_number   1
_chemical_formula_structural   KDyO2
_chemical_formula_sum   'K1 Dy1 O2'
_cell_volume   84.17085770
_cell_formula_units_Z   1
loop_
 _symmetry_equiv_pos_site_id
 _symmetry_equiv_pos_as_xyz
  1  'x, y, z'
loop_
 _atom_site_type_symbol
 _atom_site_label
 _atom_site_symmetry_multiplicity
 _atom_site_fract_x
 _atom_site_fract_y
 _atom_site_fract_z
 _atom_site_occupancy
  K  K1  1  0.00000000  0.00000000  0.00000000  1.0
  Dy  Dy1  1  0.42785618  0.52844709  0.59337491  1.0
  O  O1  1  0.18113589  0.16133097  0.16834632  1.0
  O  O2  1  0.75639975  0.69024777  0.76381487  1.0
