# generated using pymatgen
data_KNbO3
_symmetry_space_group_name_H-M   'P 1'
_cell_length_a   5.99512768
_cell_length_b   4.07516766
_cell_length_c   3.66502571
_cell_angle_alpha   92.72863770
_cell_angle_beta   94.32602692
_cell_angle_gamma   81.88606262
_symmetry_Int_Tables_number   1
_chemical_formula_structural   KNbO3
_chemical_formula_sum   'K1 Nb1 O3'
_cell_volume   88.32991076
_cell_formula_units_Z   1
loop_
 _symmetry_equiv_pos_site_id
 _symmetry_equiv_pos_as_xyz
  1  'x, y, z'
loop_
 _atom_site_type_symbol
 _atom_site_label
 _atom_site_symmetry_multiplicity
 _atom_site_fract_x
 _atom_site_fract_y
 _atom_site_fract_z
 _atom_site_occupancy
  K  K1  1  0.63033956  0.45526683  0.42928195  1.0
  Nb  Nb1  1  0.00000000  0.84462488  0.00000000  1.0
  O  O1  1  0.00000000  0.43329012  0.97907382  1.0
  O  O2  1  0.00000000  0.00000000  0.47801000  1.0
  O  O3  1  0.27836716  0.00000000  0.85558450  1.0
