# generated using pymatgen
data_KRb2CrF6
_symmetry_space_group_name_H-M   'P 1'
_cell_length_a   6.38517427
_cell_length_b   5.83519173
_cell_length_c   4.80421162
_cell_angle_alpha   59.85158539
_cell_angle_beta   65.95941925
_cell_angle_gamma   54.54246521
_symmetry_Int_Tables_number   1
_chemical_formula_structural   KRb2CrF6
_chemical_formula_sum   'K1 Rb2 Cr1 F6'
_cell_volume   124.35701112
_cell_formula_units_Z   1
loop_
 _symmetry_equiv_pos_site_id
 _symmetry_equiv_pos_as_xyz
  1  'x, y, z'
loop_
 _atom_site_type_symbol
 _atom_site_label
 _atom_site_symmetry_multiplicity
 _atom_site_fract_x
 _atom_site_fract_y
 _atom_site_fract_z
 _atom_site_occupancy
  K  K1  1  0.60277086  0.45053962  0.49858096  1.0
  Rb  Rb1  1  0.72175515  0.76622909  0.72513801  1.0
  Rb  Rb2  1  0.28016472  0.16662285  0.43944031  1.0
  Cr  Cr1  1  0.00000000  0.00000000  0.00000000  1.0
  F  F1  1  0.30913252  0.79336113  0.75302482  1.0
  F  F2  1  0.39873362  0.76963246  0.15132323  1.0
  F  F3  1  0.80244064  0.11720887  0.74889493  1.0
  F  F4  1  0.21958965  0.22627100  0.88784111  1.0
  F  F5  1  0.73996675  0.29161659  0.14882544  1.0
  F  F6  1  0.80343181  0.80968255  0.28511253  1.0
