# generated using pymatgen
data_KRuF6
_symmetry_space_group_name_H-M   'P 1'
_cell_length_a   4.85540867
_cell_length_b   4.72044706
_cell_length_c   4.58992243
_cell_angle_alpha   103.84767151
_cell_angle_beta   100.24549103
_cell_angle_gamma   105.21276093
_symmetry_Int_Tables_number   1
_chemical_formula_structural   KRuF6
_chemical_formula_sum   'K1 Ru1 F6'
_cell_volume   95.25547271
_cell_formula_units_Z   1
loop_
 _symmetry_equiv_pos_site_id
 _symmetry_equiv_pos_as_xyz
  1  'x, y, z'
loop_
 _atom_site_type_symbol
 _atom_site_label
 _atom_site_symmetry_multiplicity
 _atom_site_fract_x
 _atom_site_fract_y
 _atom_site_fract_z
 _atom_site_occupancy
  K  K1  1  0.44335330  0.60032916  0.40509075  1.0
  Ru  Ru1  1  0.00000000  0.00000000  0.00000000  1.0
  F  F1  1  0.30523598  0.35966152  0.96498483  1.0
  F  F2  1  0.33785748  0.82835960  0.27412027  1.0
  F  F3  1  0.65032893  0.15309760  0.80831051  1.0
  F  F4  1  0.81933188  0.68421477  0.00000000  1.0
  F  F5  1  0.00000000  0.73212832  0.77610421  1.0
  F  F6  1  0.92139590  0.18637636  0.20071512  1.0
