# generated using pymatgen
data_La2MgAl
_symmetry_space_group_name_H-M   'P 1'
_cell_length_a   6.33116436
_cell_length_b   3.69445586
_cell_length_c   4.74500561
_cell_angle_alpha   61.48587799
_cell_angle_beta   52.49809265
_cell_angle_gamma   53.71999741
_symmetry_Int_Tables_number   1
_chemical_formula_structural   La2MgAl
_chemical_formula_sum   'La2 Mg1 Al1'
_cell_volume   69.77894458
_cell_formula_units_Z   1
loop_
 _symmetry_equiv_pos_site_id
 _symmetry_equiv_pos_as_xyz
  1  'x, y, z'
loop_
 _atom_site_type_symbol
 _atom_site_label
 _atom_site_symmetry_multiplicity
 _atom_site_fract_x
 _atom_site_fract_y
 _atom_site_fract_z
 _atom_site_occupancy
  La  La1  1  0.71764475  0.61287540  0.39637086  1.0
  La  La2  1  0.00000000  0.00000000  0.00000000  1.0
  Mg  Mg1  1  0.81563580  0.60325360  0.83954209  1.0
  Al  Al1  1  0.24706894  0.22953716  0.22797826  1.0
