# generated using pymatgen
data_LaAgO2
_symmetry_space_group_name_H-M   'P 1'
_cell_length_a   3.83534919
_cell_length_b   6.51594337
_cell_length_c   3.83677588
_cell_angle_alpha   105.92329927
_cell_angle_beta   60.04258848
_cell_angle_gamma   106.08479607
_symmetry_Int_Tables_number   1
_chemical_formula_structural   LaAgO2
_chemical_formula_sum   'La1 Ag1 O2'
_cell_volume   78.74958139
_cell_formula_units_Z   1
loop_
 _symmetry_equiv_pos_site_id
 _symmetry_equiv_pos_as_xyz
  1  'x, y, z'
loop_
 _atom_site_type_symbol
 _atom_site_label
 _atom_site_symmetry_multiplicity
 _atom_site_fract_x
 _atom_site_fract_y
 _atom_site_fract_z
 _atom_site_occupancy
  La  La0  1  0.47779163  0.58583090  0.47136472  1.0
  Ag  Ag1  1  0.97801903  0.08578643  0.97094351  1.0
  O  O2  1  0.09167943  0.41815472  0.08688517  1.0
  O  O3  1  0.86392176  0.75350455  0.85527325  1.0
