# generated using pymatgen
data_LaAgO2
_symmetry_space_group_name_H-M   'P 1'
_cell_length_a   3.83049912
_cell_length_b   6.53567242
_cell_length_c   3.83850177
_cell_angle_alpha   105.71895297
_cell_angle_beta   59.98398412
_cell_angle_gamma   107.11084546
_symmetry_Int_Tables_number   1
_chemical_formula_structural   LaAgO2
_chemical_formula_sum   'La1 Ag1 O2'
_cell_volume   78.63153413
_cell_formula_units_Z   1
loop_
 _symmetry_equiv_pos_site_id
 _symmetry_equiv_pos_as_xyz
  1  'x, y, z'
loop_
 _atom_site_type_symbol
 _atom_site_label
 _atom_site_symmetry_multiplicity
 _atom_site_fract_x
 _atom_site_fract_y
 _atom_site_fract_z
 _atom_site_occupancy
  La  La0  1  0.48468577  0.54802289  0.46791998  1.0
  Ag  Ag1  1  0.98089774  0.04800796  0.96874076  1.0
  O  O2  1  0.09054557  0.38011553  0.08860204  1.0
  O  O3  1  0.87818350  0.71587847  0.84748029  1.0
