# generated using pymatgen
data_LaAgO2
_symmetry_space_group_name_H-M   'P 1'
_cell_length_a   4.19284159
_cell_length_b   6.30736437
_cell_length_c   4.04313746
_cell_angle_alpha   106.62367938
_cell_angle_beta   62.73764691
_cell_angle_gamma   130.16010259
_symmetry_Int_Tables_number   1
_chemical_formula_structural   LaAgO2
_chemical_formula_sum   'La1 Ag1 O2'
_cell_volume   72.63209348
_cell_formula_units_Z   1
loop_
 _symmetry_equiv_pos_site_id
 _symmetry_equiv_pos_as_xyz
  1  'x, y, z'
loop_
 _atom_site_type_symbol
 _atom_site_label
 _atom_site_symmetry_multiplicity
 _atom_site_fract_x
 _atom_site_fract_y
 _atom_site_fract_z
 _atom_site_occupancy
  La  La0  1  0.48258106  0.63705469  0.52637274  1.0
  Ag  Ag1  1  0.62728556  0.13649419  0.20100142  1.0
  O  O2  1  0.13509533  0.63646838  0.19252655  1.0
  O  O3  1  0.99019324  0.13636952  0.53147811  1.0
