# generated using pymatgen
data_LaAgO2
_symmetry_space_group_name_H-M   'P 1'
_cell_length_a   3.83662379
_cell_length_b   6.56729481
_cell_length_c   3.83457274
_cell_angle_alpha   106.93269100
_cell_angle_beta   60.04798325
_cell_angle_gamma   107.06015789
_symmetry_Int_Tables_number   1
_chemical_formula_structural   LaAgO2
_chemical_formula_sum   'La1 Ag1 O2'
_cell_volume   78.79759129
_cell_formula_units_Z   1
loop_
 _symmetry_equiv_pos_site_id
 _symmetry_equiv_pos_as_xyz
  1  'x, y, z'
loop_
 _atom_site_type_symbol
 _atom_site_label
 _atom_site_symmetry_multiplicity
 _atom_site_fract_x
 _atom_site_fract_y
 _atom_site_fract_z
 _atom_site_occupancy
  La  La0  1  0.45484389  0.48854537  0.49933189  1.0
  Ag  Ag1  1  0.95534036  0.98881871  0.99919929  1.0
  O  O2  1  0.06473447  0.32105695  0.11056911  1.0
  O  O3  1  0.84456831  0.65645095  0.88817637  1.0
