# generated using pymatgen
data_LaAgO2
_symmetry_space_group_name_H-M   'P 1'
_cell_length_a   3.83885344
_cell_length_b   6.54355320
_cell_length_c   3.83623692
_cell_angle_alpha   106.53821268
_cell_angle_beta   60.05935862
_cell_angle_gamma   106.69625448
_symmetry_Int_Tables_number   1
_chemical_formula_structural   LaAgO2
_chemical_formula_sum   'La1 Ag1 O2'
_cell_volume   78.81726697
_cell_formula_units_Z   1
loop_
 _symmetry_equiv_pos_site_id
 _symmetry_equiv_pos_as_xyz
  1  'x, y, z'
loop_
 _atom_site_type_symbol
 _atom_site_label
 _atom_site_symmetry_multiplicity
 _atom_site_fract_x
 _atom_site_fract_y
 _atom_site_fract_z
 _atom_site_occupancy
  La  La0  1  0.47831476  0.58566119  0.47098213  1.0
  Ag  Ag1  1  0.97793640  0.08579202  0.97076796  1.0
  O  O2  1  0.08915300  0.41826254  0.08446518  1.0
  O  O3  1  0.86600768  0.75356084  0.85825138  1.0
