# generated using pymatgen
data_LaAgO2
_symmetry_space_group_name_H-M   'P 1'
_cell_length_a   4.88781548
_cell_length_b   7.00276089
_cell_length_c   3.96290278
_cell_angle_alpha   98.39685059
_cell_angle_beta   71.60166168
_cell_angle_gamma   108.99373627
_symmetry_Int_Tables_number   1
_chemical_formula_structural   LaAgO2
_chemical_formula_sum   'La1 Ag1 O2'
_cell_volume   121.56012466
_cell_formula_units_Z   1
loop_
 _symmetry_equiv_pos_site_id
 _symmetry_equiv_pos_as_xyz
  1  'x, y, z'
loop_
 _atom_site_type_symbol
 _atom_site_label
 _atom_site_symmetry_multiplicity
 _atom_site_fract_x
 _atom_site_fract_y
 _atom_site_fract_z
 _atom_site_occupancy
  La  La0  1  0.50809208  0.57158267  0.47649459  1.0
  Ag  Ag1  1  0.00483158  0.96304393  0.98009840  1.0
  O  O2  1  0.99479215  0.25180427  0.12800556  1.0
  O  O3  1  0.81177123  0.66844112  0.91267811  1.0
