# generated using pymatgen
data_LaAlAu
_symmetry_space_group_name_H-M   'P 1'
_cell_length_a   5.13668537
_cell_length_b   10.19906616
_cell_length_c   7.37676048
_cell_angle_alpha   88.20156097
_cell_angle_beta   97.20639801
_cell_angle_gamma   99.38517761
_symmetry_Int_Tables_number   1
_chemical_formula_structural   LaAlAu
_chemical_formula_sum   'La4 Al4 Au4'
_cell_volume   378.25544602
_cell_formula_units_Z   4
loop_
 _symmetry_equiv_pos_site_id
 _symmetry_equiv_pos_as_xyz
  1  'x, y, z'
loop_
 _atom_site_type_symbol
 _atom_site_label
 _atom_site_symmetry_multiplicity
 _atom_site_fract_x
 _atom_site_fract_y
 _atom_site_fract_z
 _atom_site_occupancy
  La  La1  1  0.13920635  0.11835128  0.30720925  1.0
  La  La2  1  0.17769545  0.39986074  0.22060773  1.0
  La  La3  1  0.77433550  0.96880567  0.63031143  1.0
  La  La4  1  0.71044546  0.42610750  0.81619829  1.0
  Al  Al1  1  0.29974860  0.30328450  0.93392563  1.0
  Al  Al2  1  0.17805129  0.64134562  0.50481200  1.0
  Al  Al3  1  0.93174386  0.88124752  0.12076211  1.0
  Al  Al4  1  0.67536515  0.47982037  0.32951215  1.0
  Au  Au1  1  0.13372821  0.34496152  0.77368009  1.0
  Au  Au2  1  0.20916365  0.67191261  0.90814871  1.0
  Au  Au3  1  0.62270170  0.64527071  0.52561557  1.0
  Au  Au4  1  0.81535470  0.22295001  0.00000000  1.0
