# generated using pymatgen
data_LaCo5
_symmetry_space_group_name_H-M   'P 1'
_cell_length_a   4.33982134
_cell_length_b   6.03584576
_cell_length_c   5.42814875
_cell_angle_alpha   57.95502472
_cell_angle_beta   68.06677246
_cell_angle_gamma   68.33953094
_symmetry_Int_Tables_number   1
_chemical_formula_structural   LaCo5
_chemical_formula_sum   'La1 Co5'
_cell_volume   109.12592633
_cell_formula_units_Z   1
loop_
 _symmetry_equiv_pos_site_id
 _symmetry_equiv_pos_as_xyz
  1  'x, y, z'
loop_
 _atom_site_type_symbol
 _atom_site_label
 _atom_site_symmetry_multiplicity
 _atom_site_fract_x
 _atom_site_fract_y
 _atom_site_fract_z
 _atom_site_occupancy
  La  La1  1  0.00000000  0.00000000  0.00000000  1.0
  Co  Co1  1  0.00000000  0.36510912  0.34086812  1.0
  Co  Co2  1  0.00000000  0.39091903  0.62795466  1.0
  Co  Co3  1  0.41902202  0.00000000  0.70886159  1.0
  Co  Co4  1  0.30909210  0.27479380  0.45732155  1.0
  Co  Co5  1  0.42447281  0.55255604  0.00000000  1.0
