# generated using pymatgen
data_LaOF
_symmetry_space_group_name_H-M   'P 1'
_cell_length_a   3.54589128
_cell_length_b   3.33742428
_cell_length_c   5.54185820
_cell_angle_alpha   90.06291199
_cell_angle_beta   92.93574524
_cell_angle_gamma   104.54473114
_symmetry_Int_Tables_number   1
_chemical_formula_structural   LaOF
_chemical_formula_sum   'La2 O2 F2'
_cell_volume   63.39140480
_cell_formula_units_Z   2
loop_
 _symmetry_equiv_pos_site_id
 _symmetry_equiv_pos_as_xyz
  1  'x, y, z'
loop_
 _atom_site_type_symbol
 _atom_site_label
 _atom_site_symmetry_multiplicity
 _atom_site_fract_x
 _atom_site_fract_y
 _atom_site_fract_z
 _atom_site_occupancy
  La  La1  1  0.15439638  0.25231332  0.82923073  1.0
  La  La2  1  0.64029950  0.61652547  0.22037691  1.0
  O  O1  1  0.66219270  0.35318500  0.58531642  1.0
  O  O2  1  0.32742059  0.76260293  0.66177285  1.0
  F  F1  1  0.24183521  0.79846311  0.00000000  1.0
  F  F2  1  0.67917556  0.13826877  0.00000000  1.0
