# generated using pymatgen
data_LaVO4
_symmetry_space_group_name_H-M   'P 1'
_cell_length_a   6.14305942
_cell_length_b   6.16691211
_cell_length_c   7.07305143
_cell_angle_alpha   109.80403479
_cell_angle_beta   112.37573357
_cell_angle_gamma   97.04304773
_symmetry_Int_Tables_number   1
_chemical_formula_structural   LaVO4
_chemical_formula_sum   'La2 V2 O8'
_cell_volume   223.16389711
_cell_formula_units_Z   2
loop_
 _symmetry_equiv_pos_site_id
 _symmetry_equiv_pos_as_xyz
  1  'x, y, z'
loop_
 _atom_site_type_symbol
 _atom_site_label
 _atom_site_symmetry_multiplicity
 _atom_site_fract_x
 _atom_site_fract_y
 _atom_site_fract_z
 _atom_site_occupancy
  La  La0  1  0.97308427  0.08474496  0.28185870  1.0
  La  La1  1  0.86217368  0.20643703  0.78945030  1.0
  V  V2  1  0.76960352  0.55984673  0.64532032  1.0
  V  V3  1  0.49917918  0.45941014  0.90981344  1.0
  O  O4  1  0.75067491  0.83388098  0.49700848  1.0
  O  O5  1  0.55864801  0.85695799  0.55035262  1.0
  O  O6  1  0.03260921  0.72708965  0.63673477  1.0
  O  O7  1  0.74267410  0.29149306  0.07061966  1.0
  O  O8  1  0.73487613  0.20794797  0.42763060  1.0
  O  O9  1  0.16429520  0.25950196  0.68516380  1.0
  O  O10  1  0.59395522  0.73825064  0.99019879  1.0
  O  O11  1  0.52108001  0.33996999  0.64454511  1.0
