# generated using pymatgen
data_Li2AgAu
_symmetry_space_group_name_H-M   'P 1'
_cell_length_a   4.43164968
_cell_length_b   4.47774506
_cell_length_c   4.23718405
_cell_angle_alpha   56.02267075
_cell_angle_beta   59.13061523
_cell_angle_gamma   68.06261444
_symmetry_Int_Tables_number   1
_chemical_formula_structural   Li2AgAu
_chemical_formula_sum   'Li2 Ag1 Au1'
_cell_volume   59.40102635
_cell_formula_units_Z   1
loop_
 _symmetry_equiv_pos_site_id
 _symmetry_equiv_pos_as_xyz
  1  'x, y, z'
loop_
 _atom_site_type_symbol
 _atom_site_label
 _atom_site_symmetry_multiplicity
 _atom_site_fract_x
 _atom_site_fract_y
 _atom_site_fract_z
 _atom_site_occupancy
  Li  Li1  1  0.00000000  0.00000000  0.00000000  1.0
  Li  Li2  1  0.56869912  0.54468918  0.60250902  1.0
  Ag  Ag1  1  0.24224678  0.49159256  0.31264776  1.0
  Au  Au1  1  0.81873256  0.66758060  0.79317129  1.0
