# generated using pymatgen
data_Li2AcSn
_symmetry_space_group_name_H-M   'P 1'
_cell_length_a   7.37432146
_cell_length_b   6.13476849
_cell_length_c   6.53012705
_cell_angle_alpha   62.65672302
_cell_angle_beta   61.21376038
_cell_angle_gamma   55.36785126
_symmetry_Int_Tables_number   1
_chemical_formula_structural   Li2AcSn
_chemical_formula_sum   'Li2 Ac1 Sn1'
_cell_volume   205.85765716
_cell_formula_units_Z   1
loop_
 _symmetry_equiv_pos_site_id
 _symmetry_equiv_pos_as_xyz
  1  'x, y, z'
loop_
 _atom_site_type_symbol
 _atom_site_label
 _atom_site_symmetry_multiplicity
 _atom_site_fract_x
 _atom_site_fract_y
 _atom_site_fract_z
 _atom_site_occupancy
  Li  Li1  1  0.20612195  0.18786749  0.23497763  1.0
  Li  Li2  1  0.74362111  0.68892938  0.68835670  1.0
  Ac  Ac1  1  0.53976953  0.51457173  0.45357263  1.0
  Sn  Sn1  1  0.00000000  0.00000000  0.00000000  1.0
