# generated using pymatgen
data_Li3SnC
_symmetry_space_group_name_H-M   'P 1'
_cell_length_a   1.31244862
_cell_length_b   2.58499074
_cell_length_c   3.74027848
_cell_angle_alpha   94.22267914
_cell_angle_beta   89.52272797
_cell_angle_gamma   103.22132111
_symmetry_Int_Tables_number   1
_chemical_formula_structural   Li3SnC
_chemical_formula_sum   'Li3 Sn1 C1'
_cell_volume   12.31916393
_cell_formula_units_Z   1
loop_
 _symmetry_equiv_pos_site_id
 _symmetry_equiv_pos_as_xyz
  1  'x, y, z'
loop_
 _atom_site_type_symbol
 _atom_site_label
 _atom_site_symmetry_multiplicity
 _atom_site_fract_x
 _atom_site_fract_y
 _atom_site_fract_z
 _atom_site_occupancy
  Li  Li1  1  0.21521774  0.00000000  0.49453461  1.0
  Li  Li2  1  0.00000000  0.56017214  0.62654018  1.0
  Li  Li3  1  0.42659307  0.39362386  0.00000000  1.0
  Sn  Sn1  1  0.00000000  0.00000000  0.00000000  1.0
  C  C1  1  0.65834516  0.58187604  0.53554302  1.0
