# generated using pymatgen
data_LiAsF6
_symmetry_space_group_name_H-M   'P 1'
_cell_length_a   5.60426712
_cell_length_b   5.74596167
_cell_length_c   4.90089178
_cell_angle_alpha   46.04408264
_cell_angle_beta   41.44075394
_cell_angle_gamma   46.32952881
_symmetry_Int_Tables_number   1
_chemical_formula_structural   LiAsF6
_chemical_formula_sum   'Li1 As1 F6'
_cell_volume   70.23143655
_cell_formula_units_Z   1
loop_
 _symmetry_equiv_pos_site_id
 _symmetry_equiv_pos_as_xyz
  1  'x, y, z'
loop_
 _atom_site_type_symbol
 _atom_site_label
 _atom_site_symmetry_multiplicity
 _atom_site_fract_x
 _atom_site_fract_y
 _atom_site_fract_z
 _atom_site_occupancy
  Li  Li1  1  0.30760205  0.41039428  0.28285956  1.0
  As  As1  1  0.00000000  0.00000000  0.00000000  1.0
  F  F1  1  0.24733537  0.83221871  0.54896635  1.0
  F  F2  1  0.64027774  0.23725548  0.90475821  1.0
  F  F3  1  0.74484313  0.64390850  0.21078798  1.0
  F  F4  1  0.35260940  0.78239775  0.16146874  1.0
  F  F5  1  0.00000000  0.26652825  0.75608087  1.0
  F  F6  1  0.70288634  0.10878921  0.23804730  1.0
