# generated using pymatgen
data_LiGe2N3
_symmetry_space_group_name_H-M   'P 1'
_cell_length_a   12.29878658
_cell_length_b   12.75972571
_cell_length_c   15.78633160
_cell_angle_alpha   105.11840851
_cell_angle_beta   130.54992143
_cell_angle_gamma   62.29651136
_symmetry_Int_Tables_number   1
_chemical_formula_structural   LiGe2N3
_chemical_formula_sum   'Li2 Ge4 N6'
_cell_volume   1663.43063044
_cell_formula_units_Z   2
loop_
 _symmetry_equiv_pos_site_id
 _symmetry_equiv_pos_as_xyz
  1  'x, y, z'
loop_
 _atom_site_type_symbol
 _atom_site_label
 _atom_site_symmetry_multiplicity
 _atom_site_fract_x
 _atom_site_fract_y
 _atom_site_fract_z
 _atom_site_occupancy
  Li  Li0  1  0.50013310  0.29981659  0.11109702  1.0
  Li  Li1  1  0.07412420  0.92381900  0.20858244  1.0
  Ge  Ge2  1  0.08481758  0.32898211  0.34522068  1.0
  Ge  Ge3  1  0.71734324  0.70818535  0.92151619  1.0
  Ge  Ge4  1  0.08552566  0.42557202  0.24731867  1.0
  Ge  Ge5  1  0.20815554  0.53339767  0.84726009  1.0
  N  N6  1  0.02313472  0.53283877  0.74424186  1.0
  N  N7  1  0.09660433  0.98323832  0.45804092  1.0
  N  N8  1  0.10136373  0.88908820  0.99917418  1.0
  N  N9  1  0.06442710  0.22456365  0.02700963  1.0
  N  N10  1  0.91188651  0.19720078  0.81833512  1.0
  N  N11  1  0.56872088  0.18110742  0.06094103  1.0
