# generated using pymatgen
data_LiLu2Os
_symmetry_space_group_name_H-M   'P 1'
_cell_length_a   4.52561665
_cell_length_b   5.92395020
_cell_length_c   5.87861967
_cell_angle_alpha   64.52690125
_cell_angle_beta   59.71786118
_cell_angle_gamma   52.84990311
_symmetry_Int_Tables_number   1
_chemical_formula_structural   LiLu2Os
_chemical_formula_sum   'Li1 Lu2 Os1'
_cell_volume   106.65788903
_cell_formula_units_Z   1
loop_
 _symmetry_equiv_pos_site_id
 _symmetry_equiv_pos_as_xyz
  1  'x, y, z'
loop_
 _atom_site_type_symbol
 _atom_site_label
 _atom_site_symmetry_multiplicity
 _atom_site_fract_x
 _atom_site_fract_y
 _atom_site_fract_z
 _atom_site_occupancy
  Li  Li1  1  0.24955174  0.25105983  0.15493107  1.0
  Lu  Lu1  1  0.91926813  0.85797471  0.90381110  1.0
  Lu  Lu2  1  0.43601876  0.46909332  0.35597125  1.0
  Os  Os1  1  0.60256416  0.78926575  0.69077921  1.0
