# generated using pymatgen
data_LiLuAu2
_symmetry_space_group_name_H-M   'P 1'
_cell_length_a   4.77672195
_cell_length_b   3.97639656
_cell_length_c   5.10694695
_cell_angle_alpha   60.31311798
_cell_angle_beta   63.88599396
_cell_angle_gamma   54.88372803
_symmetry_Int_Tables_number   1
_chemical_formula_structural   LiLuAu2
_chemical_formula_sum   'Li1 Lu1 Au2'
_cell_volume   67.26624666
_cell_formula_units_Z   1
loop_
 _symmetry_equiv_pos_site_id
 _symmetry_equiv_pos_as_xyz
  1  'x, y, z'
loop_
 _atom_site_type_symbol
 _atom_site_label
 _atom_site_symmetry_multiplicity
 _atom_site_fract_x
 _atom_site_fract_y
 _atom_site_fract_z
 _atom_site_occupancy
  Li  Li1  1  0.22526836  0.20575938  0.22537130  1.0
  Lu  Lu1  1  0.81967223  0.76218700  0.78874063  1.0
  Au  Au1  1  0.51577413  0.52901220  0.62345731  1.0
  Au  Au2  1  0.00000000  0.00000000  0.00000000  1.0
