# generated using pymatgen
data_LiN
_symmetry_space_group_name_H-M   'P 1'
_cell_length_a   4.53190470
_cell_length_b   7.89599943
_cell_length_c   3.31841230
_cell_angle_alpha   85.29537201
_cell_angle_beta   84.73418427
_cell_angle_gamma   131.70071411
_symmetry_Int_Tables_number   1
_chemical_formula_structural   LiN
_chemical_formula_sum   'Li3 N3'
_cell_volume   86.63488735
_cell_formula_units_Z   3
loop_
 _symmetry_equiv_pos_site_id
 _symmetry_equiv_pos_as_xyz
  1  'x, y, z'
loop_
 _atom_site_type_symbol
 _atom_site_label
 _atom_site_symmetry_multiplicity
 _atom_site_fract_x
 _atom_site_fract_y
 _atom_site_fract_z
 _atom_site_occupancy
  Li  Li1  1  0.00000000  0.00000000  0.00000000  1.0
  Li  Li2  1  0.10477132  0.42410544  0.41520888  1.0
  Li  Li3  1  0.54860044  0.64725739  0.41075575  1.0
  N  N1  1  0.41835043  0.00000000  0.00000000  1.0
  N  N2  1  0.54177070  0.40127325  0.00000000  1.0
  N  N3  1  0.00000000  0.24597552  0.00000000  1.0
