# generated using pymatgen
data_LiSiNi2
_symmetry_space_group_name_H-M   'P 1'
_cell_length_a   3.18486023
_cell_length_b   4.74761391
_cell_length_c   4.53942537
_cell_angle_alpha   45.13785553
_cell_angle_beta   64.07077789
_cell_angle_gamma   64.17140961
_symmetry_Int_Tables_number   1
_chemical_formula_structural   LiSiNi2
_chemical_formula_sum   'Li1 Si1 Ni2'
_cell_volume   42.87334430
_cell_formula_units_Z   1
loop_
 _symmetry_equiv_pos_site_id
 _symmetry_equiv_pos_as_xyz
  1  'x, y, z'
loop_
 _atom_site_type_symbol
 _atom_site_label
 _atom_site_symmetry_multiplicity
 _atom_site_fract_x
 _atom_site_fract_y
 _atom_site_fract_z
 _atom_site_occupancy
  Li  Li1  1  0.58798069  0.50485432  0.39004561  1.0
  Si  Si1  1  0.00000000  0.00000000  0.00000000  1.0
  Ni  Ni1  1  0.22767559  0.22200558  0.20764118  1.0
  Ni  Ni2  1  0.73826593  0.73659205  0.71103835  1.0
