# generated using pymatgen
data_Lu2SO2
_symmetry_space_group_name_H-M   'P 1'
_cell_length_a   9.35932643
_cell_length_b   3.55435388
_cell_length_c   20.15270388
_cell_angle_alpha   100.01612315
_cell_angle_beta   38.08689420
_cell_angle_gamma   114.65801521
_symmetry_Int_Tables_number   1
_chemical_formula_structural   Lu2SO2
_chemical_formula_sum   'Lu2 S1 O2'
_cell_volume   361.29136195
_cell_formula_units_Z   1
loop_
 _symmetry_equiv_pos_site_id
 _symmetry_equiv_pos_as_xyz
  1  'x, y, z'
loop_
 _atom_site_type_symbol
 _atom_site_label
 _atom_site_symmetry_multiplicity
 _atom_site_fract_x
 _atom_site_fract_y
 _atom_site_fract_z
 _atom_site_occupancy
  Lu  Lu0  1  0.71456995  0.41660863  0.66666667  1.0
  Lu  Lu1  1  0.56671312  0.70514042  0.67989030  1.0
  S  S2  1  0.97867391  0.98918932  0.97775862  1.0
  O  O3  1  0.50492173  0.30504172  0.16498244  1.0
  O  O4  1  0.06770444  0.58042757  0.82563361  1.0
