# generated using pymatgen
data_Lu2SO2
_symmetry_space_group_name_H-M   'P 1'
_cell_length_a   3.71280998
_cell_length_b   3.67749707
_cell_length_c   6.49413639
_cell_angle_alpha   90.18740042
_cell_angle_beta   90.06265297
_cell_angle_gamma   120.31597545
_symmetry_Int_Tables_number   1
_chemical_formula_structural   Lu2SO2
_chemical_formula_sum   'Lu2 S1 O2'
_cell_volume   76.54396747
_cell_formula_units_Z   1
loop_
 _symmetry_equiv_pos_site_id
 _symmetry_equiv_pos_as_xyz
  1  'x, y, z'
loop_
 _atom_site_type_symbol
 _atom_site_label
 _atom_site_symmetry_multiplicity
 _atom_site_fract_x
 _atom_site_fract_y
 _atom_site_fract_z
 _atom_site_occupancy
  Lu  Lu0  1  0.64076298  0.35930536  0.71028422  1.0
  Lu  Lu1  1  0.30641218  0.69057943  0.27802674  1.0
  S  S2  1  0.97182335  0.02363952  0.99451043  1.0
  O  O3  1  0.64201919  0.36086336  0.36502901  1.0
  O  O4  1  0.30627610  0.68943368  0.62372138  1.0
