# generated using pymatgen
data_Lu2SO2
_symmetry_space_group_name_H-M   'P 1'
_cell_length_a   3.69581502
_cell_length_b   3.69834182
_cell_length_c   6.47604055
_cell_angle_alpha   90.05513407
_cell_angle_beta   89.83723849
_cell_angle_gamma   119.97912229
_symmetry_Int_Tables_number   1
_chemical_formula_structural   Lu2SO2
_chemical_formula_sum   'Lu2 S1 O2'
_cell_volume   76.67379870
_cell_formula_units_Z   1
loop_
 _symmetry_equiv_pos_site_id
 _symmetry_equiv_pos_as_xyz
  1  'x, y, z'
loop_
 _atom_site_type_symbol
 _atom_site_label
 _atom_site_symmetry_multiplicity
 _atom_site_fract_x
 _atom_site_fract_y
 _atom_site_fract_z
 _atom_site_occupancy
  Lu  Lu0  1  0.61402301  0.31196826  0.70311027  1.0
  Lu  Lu1  1  0.28080865  0.64613869  0.27059134  1.0
  S  S2  1  0.94745463  0.97912364  0.98663782  1.0
  O  O3  1  0.61379301  0.31235869  0.35726110  1.0
  O  O4  1  0.28099444  0.64566026  0.61635482  1.0
