# generated using pymatgen
data_Lu2SO2
_symmetry_space_group_name_H-M   'P 1'
_cell_length_a   3.70104320
_cell_length_b   3.70091656
_cell_length_c   6.47794757
_cell_angle_alpha   89.97467844
_cell_angle_beta   90.01585428
_cell_angle_gamma   120.00649657
_symmetry_Int_Tables_number   1
_chemical_formula_structural   Lu2SO2
_chemical_formula_sum   'Lu2 S1 O2'
_cell_volume   76.83746545
_cell_formula_units_Z   1
loop_
 _symmetry_equiv_pos_site_id
 _symmetry_equiv_pos_as_xyz
  1  'x, y, z'
loop_
 _atom_site_type_symbol
 _atom_site_label
 _atom_site_symmetry_multiplicity
 _atom_site_fract_x
 _atom_site_fract_y
 _atom_site_fract_z
 _atom_site_occupancy
  Lu  Lu0  1  0.73227306  0.31430392  0.74471083  1.0
  Lu  Lu1  1  0.39754051  0.64881501  0.31259209  1.0
  S  S2  1  0.06374009  0.98071864  0.02866015  1.0
  O  O3  1  0.73096839  0.31521672  0.39896155  1.0
  O  O4  1  0.39848468  0.64783360  0.65805149  1.0
