# generated using pymatgen
data_Lu2SO2
_symmetry_space_group_name_H-M   'P 1'
_cell_length_a   3.62191839
_cell_length_b   3.74531771
_cell_length_c   6.36601361
_cell_angle_alpha   90.13807597
_cell_angle_beta   88.73193660
_cell_angle_gamma   119.72774098
_symmetry_Int_Tables_number   1
_chemical_formula_structural   Lu2SO2
_chemical_formula_sum   'Lu2 S1 O2'
_cell_volume   74.96921475
_cell_formula_units_Z   1
loop_
 _symmetry_equiv_pos_site_id
 _symmetry_equiv_pos_as_xyz
  1  'x, y, z'
loop_
 _atom_site_type_symbol
 _atom_site_label
 _atom_site_symmetry_multiplicity
 _atom_site_fract_x
 _atom_site_fract_y
 _atom_site_fract_z
 _atom_site_occupancy
  Lu  Lu0  1  0.66227464  0.33442602  0.71746351  1.0
  Lu  Lu1  1  0.33547055  0.67074867  0.28351594  1.0
  S  S2  1  0.99952999  0.00195632  0.00089322  1.0
  O  O3  1  0.66039832  0.32968751  0.37042288  1.0
  O  O4  1  0.33744986  0.67488452  0.63095357  1.0
