# generated using pymatgen
data_Lu2SO2
_symmetry_space_group_name_H-M   'P 1'
_cell_length_a   3.69922158
_cell_length_b   3.70281012
_cell_length_c   6.47754034
_cell_angle_alpha   89.97160109
_cell_angle_beta   90.00476339
_cell_angle_gamma   119.99900440
_symmetry_Int_Tables_number   1
_chemical_formula_structural   Lu2SO2
_chemical_formula_sum   'Lu2 S1 O2'
_cell_volume   76.83990896
_cell_formula_units_Z   1
loop_
 _symmetry_equiv_pos_site_id
 _symmetry_equiv_pos_as_xyz
  1  'x, y, z'
loop_
 _atom_site_type_symbol
 _atom_site_label
 _atom_site_symmetry_multiplicity
 _atom_site_fract_x
 _atom_site_fract_y
 _atom_site_fract_z
 _atom_site_occupancy
  Lu  Lu0  1  0.68559749  0.30242148  0.72517280  1.0
  Lu  Lu1  1  0.35153255  0.63528638  0.29314401  1.0
  S  S2  1  0.01739527  0.96859437  0.00909075  1.0
  O  O3  1  0.68492214  0.30221740  0.37960674  1.0
  O  O4  1  0.35243471  0.63563137  0.63854604  1.0
