# generated using pymatgen
data_Lu2S3
_symmetry_space_group_name_H-M   'P 1'
_cell_length_a   14.17204330
_cell_length_b   17.27076923
_cell_length_c   12.96844125
_cell_angle_alpha   129.23215983
_cell_angle_beta   109.29957082
_cell_angle_gamma   37.16157537
_symmetry_Int_Tables_number   1
_chemical_formula_structural   Lu2S3
_chemical_formula_sum   'Lu4 S6'
_cell_volume   1379.29629748
_cell_formula_units_Z   2
loop_
 _symmetry_equiv_pos_site_id
 _symmetry_equiv_pos_as_xyz
  1  'x, y, z'
loop_
 _atom_site_type_symbol
 _atom_site_label
 _atom_site_symmetry_multiplicity
 _atom_site_fract_x
 _atom_site_fract_y
 _atom_site_fract_z
 _atom_site_occupancy
  Lu  Lu0  1  0.86798595  0.79400394  0.82760636  1.0
  Lu  Lu1  1  0.65649738  0.59897924  0.66687828  1.0
  Lu  Lu2  1  0.75313561  0.67190964  0.71063380  1.0
  Lu  Lu3  1  0.35588103  0.20016378  0.32676249  1.0
  S  S4  1  0.98987182  0.51291150  0.51275099  1.0
  S  S5  1  0.60821206  0.50153499  0.03208255  1.0
  S  S6  1  0.21628413  0.00876231  0.57604642  1.0
  S  S7  1  0.29628751  0.45575747  0.92618374  1.0
  S  S8  1  0.37087254  0.93708947  0.98803579  1.0
  S  S9  1  0.16164140  0.57347619  0.86942133  1.0
