# generated using pymatgen
data_LuCuPbS3
_symmetry_space_group_name_H-M   'P 1'
_cell_length_a   6.11743021
_cell_length_b   9.26291180
_cell_length_c   11.66122150
_cell_angle_alpha   69.09339142
_cell_angle_beta   86.79742432
_cell_angle_gamma   133.50115967
_symmetry_Int_Tables_number   1
_chemical_formula_structural   LuCuPbS3
_chemical_formula_sum   'Lu2 Cu2 Pb2 S6'
_cell_volume   400.98397940
_cell_formula_units_Z   2
loop_
 _symmetry_equiv_pos_site_id
 _symmetry_equiv_pos_as_xyz
  1  'x, y, z'
loop_
 _atom_site_type_symbol
 _atom_site_label
 _atom_site_symmetry_multiplicity
 _atom_site_fract_x
 _atom_site_fract_y
 _atom_site_fract_z
 _atom_site_occupancy
  Lu  Lu1  1  0.96490228  0.00000000  0.28946495  1.0
  Lu  Lu2  1  0.00000000  0.94440043  0.97448611  1.0
  Cu  Cu1  1  0.55622900  0.56655723  0.21463653  1.0
  Cu  Cu2  1  0.66757947  0.38532051  0.86192441  1.0
  Pb  Pb1  1  0.81179214  0.28886184  0.33736122  1.0
  Pb  Pb2  1  0.30856681  0.85055828  0.63836634  1.0
  S  S1  1  0.00000000  0.95688450  0.45202610  1.0
  S  S2  1  0.92515451  0.00000000  0.77093428  1.0
  S  S3  1  0.13789287  0.58549190  0.60356641  1.0
  S  S4  1  0.57446563  0.61882365  0.28587088  1.0
  S  S5  1  0.30054522  0.75849330  0.00000000  1.0
  S  S6  1  0.53601938  0.16813919  0.96650273  1.0
