# generated using pymatgen
data_LuNbO4
_symmetry_space_group_name_H-M   'P 1'
_cell_length_a   8.81271800
_cell_length_b   5.21124193
_cell_length_c   6.93727678
_cell_angle_alpha   60.08665371
_cell_angle_beta   64.01422853
_cell_angle_gamma   98.89855086
_symmetry_Int_Tables_number   1
_chemical_formula_structural   LuNbO4
_chemical_formula_sum   'Lu2 Nb2 O8'
_cell_volume   217.90884989
_cell_formula_units_Z   2
loop_
 _symmetry_equiv_pos_site_id
 _symmetry_equiv_pos_as_xyz
  1  'x, y, z'
loop_
 _atom_site_type_symbol
 _atom_site_label
 _atom_site_symmetry_multiplicity
 _atom_site_fract_x
 _atom_site_fract_y
 _atom_site_fract_z
 _atom_site_occupancy
  Lu  Lu0  1  0.67788794  0.84351854  0.65628629  1.0
  Lu  Lu1  1  0.13578765  0.61571275  0.83046346  1.0
  Nb  Nb2  1  0.46451838  0.41723389  0.93359720  1.0
  Nb  Nb3  1  0.33597667  0.99307322  0.13364926  1.0
  O  O4  1  0.66878839  0.29726187  0.24279304  1.0
  O  O5  1  0.11806502  0.09792606  0.43716041  1.0
  O  O6  1  0.27504745  0.29386824  0.74503887  1.0
  O  O7  1  0.10307655  0.69070689  0.02019690  1.0
  O  O8  1  0.11918972  0.83249665  0.18801698  1.0
  O  O9  1  0.49281202  0.78507861  0.73442990  1.0
  O  O10  1  0.96947834  0.18736682  0.64511783  1.0
  O  O11  1  0.58603394  0.22865300  0.46049208  1.0
