# generated using pymatgen
data_LuNi
_symmetry_space_group_name_H-M   'P 1'
_cell_length_a   4.10489368
_cell_length_b   4.93625450
_cell_length_c   8.29952049
_cell_angle_alpha   83.89419556
_cell_angle_beta   97.78089142
_cell_angle_gamma   77.13782501
_symmetry_Int_Tables_number   1
_chemical_formula_structural   LuNi
_chemical_formula_sum   'Lu4 Ni4'
_cell_volume   160.81212694
_cell_formula_units_Z   4
loop_
 _symmetry_equiv_pos_site_id
 _symmetry_equiv_pos_as_xyz
  1  'x, y, z'
loop_
 _atom_site_type_symbol
 _atom_site_label
 _atom_site_symmetry_multiplicity
 _atom_site_fract_x
 _atom_site_fract_y
 _atom_site_fract_z
 _atom_site_occupancy
  Lu  Lu1  1  0.36703801  0.32842815  0.72522014  1.0
  Lu  Lu2  1  0.27603525  0.15697449  0.11259881  1.0
  Lu  Lu3  1  0.64878023  0.64770997  0.27681518  1.0
  Lu  Lu4  1  0.67853951  0.93782854  0.85262531  1.0
  Ni  Ni1  1  0.23442724  0.77546680  0.69186610  1.0
  Ni  Ni2  1  0.36108541  0.54435062  0.00000000  1.0
  Ni  Ni3  1  0.70361203  0.00000000  0.53484601  1.0
  Ni  Ni4  1  0.87811673  0.35990340  0.92359287  1.0
