# generated using pymatgen
data_LuPaTc2
_symmetry_space_group_name_H-M   'P 1'
_cell_length_a   5.57811642
_cell_length_b   4.40740490
_cell_length_c   4.32412291
_cell_angle_alpha   55.64858246
_cell_angle_beta   60.79254150
_cell_angle_gamma   62.68784332
_symmetry_Int_Tables_number   1
_chemical_formula_structural   LuPaTc2
_chemical_formula_sum   'Lu1 Pa1 Tc2'
_cell_volume   74.08361401
_cell_formula_units_Z   1
loop_
 _symmetry_equiv_pos_site_id
 _symmetry_equiv_pos_as_xyz
  1  'x, y, z'
loop_
 _atom_site_type_symbol
 _atom_site_label
 _atom_site_symmetry_multiplicity
 _atom_site_fract_x
 _atom_site_fract_y
 _atom_site_fract_z
 _atom_site_occupancy
  Lu  Lu1  1  0.15555096  0.27359816  0.15722182  1.0
  Pa  Pa1  1  0.83464241  0.73323834  0.75685406  1.0
  Tc  Tc1  1  0.00000000  0.00000000  0.00000000  1.0
  Tc  Tc2  1  0.52512240  0.48477679  0.46969676  1.0
