# generated using pymatgen
data_Mg2TaN3
_symmetry_space_group_name_H-M   'P 1'
_cell_length_a   5.90345665
_cell_length_b   5.96266395
_cell_length_c   5.32207273
_cell_angle_alpha   89.95343870
_cell_angle_beta   90.08020101
_cell_angle_gamma   120.34023800
_symmetry_Int_Tables_number   1
_chemical_formula_structural   Mg2TaN3
_chemical_formula_sum   'Mg4 Ta2 N6'
_cell_volume   161.68082786
_cell_formula_units_Z   2
loop_
 _symmetry_equiv_pos_site_id
 _symmetry_equiv_pos_as_xyz
  1  'x, y, z'
loop_
 _atom_site_type_symbol
 _atom_site_label
 _atom_site_symmetry_multiplicity
 _atom_site_fract_x
 _atom_site_fract_y
 _atom_site_fract_z
 _atom_site_occupancy
  Mg  Mg0  1  0.38133119  0.33333333  0.40553665  1.0
  Mg  Mg1  1  0.70313866  0.99425633  0.40596804  1.0
  Mg  Mg2  1  0.70273253  0.67151405  0.90562332  1.0
  Mg  Mg3  1  0.38089770  0.01060669  0.90566200  1.0
  Ta  Ta4  1  0.04225728  0.66932351  0.40452615  1.0
  Ta  Ta5  1  0.04175296  0.33534639  0.90451295  1.0
  N  N6  1  0.35305434  0.33447822  0.80295030  1.0
  N  N7  1  0.73013908  0.02303150  0.80330526  1.0
  N  N8  1  0.73088619  0.67044825  0.30311253  1.0
  N  N9  1  0.35358099  0.98151891  0.30321705  1.0
  N  N10  1  0.04160062  0.65292258  0.77893523  1.0
  N  N11  1  0.04211051  0.35165420  0.27912646  1.0
