# generated using pymatgen
data_Mg2TaN3
_symmetry_space_group_name_H-M   'P 1'
_cell_length_a   7.53745203
_cell_length_b   8.83286327
_cell_length_c   7.06472893
_cell_angle_alpha   66.96290876
_cell_angle_beta   94.78713864
_cell_angle_gamma   115.31975661
_symmetry_Int_Tables_number   1
_chemical_formula_structural   Mg2TaN3
_chemical_formula_sum   'Mg4 Ta2 N6'
_cell_volume   389.26463644
_cell_formula_units_Z   2
loop_
 _symmetry_equiv_pos_site_id
 _symmetry_equiv_pos_as_xyz
  1  'x, y, z'
loop_
 _atom_site_type_symbol
 _atom_site_label
 _atom_site_symmetry_multiplicity
 _atom_site_fract_x
 _atom_site_fract_y
 _atom_site_fract_z
 _atom_site_occupancy
  Mg  Mg0  1  0.24622478  0.15009122  0.17504332  1.0
  Mg  Mg1  1  0.82962554  0.27415117  0.62974225  1.0
  Mg  Mg2  1  0.66208037  0.61218453  0.00747293  1.0
  Mg  Mg3  1  0.81677254  0.24314111  0.17704780  1.0
  Ta  Ta4  1  0.74827790  0.36896510  0.13860372  1.0
  Ta  Ta5  1  0.95639860  0.60491891  0.42603388  1.0
  N  N6  1  0.54357379  0.24792962  0.18048624  1.0
  N  N7  1  0.85560933  0.02172976  0.96376583  1.0
  N  N8  1  0.37649870  0.89196898  0.15170343  1.0
  N  N9  1  0.93750387  0.94223727  0.85544810  1.0
  N  N10  1  0.98595181  0.38285847  0.80370419  1.0
  N  N11  1  0.86402434  0.01911867  0.27031586  1.0
