# generated using pymatgen
data_Mg4TaN7
_symmetry_space_group_name_H-M   'P 1'
_cell_length_a   4.83011801
_cell_length_b   9.01494898
_cell_length_c   9.84554601
_cell_angle_alpha   102.70742770
_cell_angle_beta   103.47190176
_cell_angle_gamma   96.60480747
_symmetry_Int_Tables_number   1
_chemical_formula_structural   Mg4TaN7
_chemical_formula_sum   'Mg4 Ta1 N7'
_cell_volume   400.40410897
_cell_formula_units_Z   1
loop_
 _symmetry_equiv_pos_site_id
 _symmetry_equiv_pos_as_xyz
  1  'x, y, z'
loop_
 _atom_site_type_symbol
 _atom_site_label
 _atom_site_symmetry_multiplicity
 _atom_site_fract_x
 _atom_site_fract_y
 _atom_site_fract_z
 _atom_site_occupancy
  Mg  Mg0  1  0.53181101  0.56166174  0.44979957  1.0
  Mg  Mg1  1  0.82223677  0.98372040  0.53691134  1.0
  Mg  Mg2  1  0.53010313  0.52766731  0.90245788  1.0
  Mg  Mg3  1  0.39831437  0.96377103  0.39357239  1.0
  Ta  Ta4  1  0.82689679  0.86799207  0.60842514  1.0
  N  N5  1  0.99369036  0.28851269  0.96983374  1.0
  N  N6  1  0.37160111  0.26213947  0.19054983  1.0
  N  N7  1  0.73219957  0.99744908  0.94494944  1.0
  N  N8  1  0.18788386  0.29975939  0.00223750  1.0
  N  N9  1  0.44131663  0.88019934  0.83506502  1.0
  N  N10  1  0.05433371  0.82771524  0.86415572  1.0
  N  N11  1  0.08957115  0.37123462  0.67291261  1.0
