# generated using pymatgen
data_MgAlH2
_symmetry_space_group_name_H-M   'P 1'
_cell_length_a   8.36948013
_cell_length_b   7.34627771
_cell_length_c   7.40369606
_cell_angle_alpha   57.40533066
_cell_angle_beta   55.89474869
_cell_angle_gamma   48.31565094
_symmetry_Int_Tables_number   1
_chemical_formula_structural   MgAlH2
_chemical_formula_sum   'Mg1 Al1 H2'
_cell_volume   271.18435047
_cell_formula_units_Z   1
loop_
 _symmetry_equiv_pos_site_id
 _symmetry_equiv_pos_as_xyz
  1  'x, y, z'
loop_
 _atom_site_type_symbol
 _atom_site_label
 _atom_site_symmetry_multiplicity
 _atom_site_fract_x
 _atom_site_fract_y
 _atom_site_fract_z
 _atom_site_occupancy
  Mg  Mg1  1  0.75461191  0.65879053  0.59310019  1.0
  Al  Al1  1  0.29646754  0.32768899  0.23521680  1.0
  H  H1  1  0.50770134  0.44504726  0.53767186  1.0
  H  H2  1  0.00000000  0.00000000  0.00000000  1.0
