# generated using pymatgen
data_MgMnPd2
_symmetry_space_group_name_H-M   'P 1'
_cell_length_a   4.78592443
_cell_length_b   4.36044073
_cell_length_c   5.83779955
_cell_angle_alpha   55.07143021
_cell_angle_beta   56.98059082
_cell_angle_gamma   64.85871124
_symmetry_Int_Tables_number   1
_chemical_formula_structural   MgMnPd2
_chemical_formula_sum   'Mg1 Mn1 Pd2'
_cell_volume   82.61369060
_cell_formula_units_Z   1
loop_
 _symmetry_equiv_pos_site_id
 _symmetry_equiv_pos_as_xyz
  1  'x, y, z'
loop_
 _atom_site_type_symbol
 _atom_site_label
 _atom_site_symmetry_multiplicity
 _atom_site_fract_x
 _atom_site_fract_y
 _atom_site_fract_z
 _atom_site_occupancy
  Mg  Mg1  1  0.46066725  0.58703578  0.48185438  1.0
  Mn  Mn1  1  0.00000000  0.00000000  0.00000000  1.0
  Pd  Pd1  1  0.15925112  0.28884265  0.38179609  1.0
  Pd  Pd2  1  0.72523260  0.72588754  0.76212239  1.0
