# generated using pymatgen
data_MgMnF6
_symmetry_space_group_name_H-M   'P 1'
_cell_length_a   6.00205851
_cell_length_b   5.49851847
_cell_length_c   5.11093616
_cell_angle_alpha   68.48838043
_cell_angle_beta   72.30322266
_cell_angle_gamma   50.19795227
_symmetry_Int_Tables_number   1
_chemical_formula_structural   MgMnF6
_chemical_formula_sum   'Mg1 Mn1 F6'
_cell_volume   119.99143927
_cell_formula_units_Z   1
loop_
 _symmetry_equiv_pos_site_id
 _symmetry_equiv_pos_as_xyz
  1  'x, y, z'
loop_
 _atom_site_type_symbol
 _atom_site_label
 _atom_site_symmetry_multiplicity
 _atom_site_fract_x
 _atom_site_fract_y
 _atom_site_fract_z
 _atom_site_occupancy
  Mg  Mg1  1  0.35031265  0.51377571  0.39081120  1.0
  Mn  Mn1  1  0.00000000  0.00000000  0.00000000  1.0
  F  F1  1  0.69428915  0.90671498  0.35494733  1.0
  F  F2  1  0.85543108  0.36513835  0.70340931  1.0
  F  F3  1  0.75791878  0.43271035  0.00000000  1.0
  F  F4  1  0.00000000  0.71994776  0.25326568  1.0
  F  F5  1  0.46206918  0.00000000  0.64115435  1.0
  F  F6  1  0.16669786  0.61125708  0.91135883  1.0
