# generated using pymatgen
data_MgPdF6
_symmetry_space_group_name_H-M   'P 1'
_cell_length_a   4.39028120
_cell_length_b   4.69785786
_cell_length_c   4.71007490
_cell_angle_alpha   71.15638733
_cell_angle_beta   61.05150986
_cell_angle_gamma   62.73832321
_symmetry_Int_Tables_number   1
_chemical_formula_structural   MgPdF6
_chemical_formula_sum   'Mg1 Pd1 F6'
_cell_volume   74.92165746
_cell_formula_units_Z   1
loop_
 _symmetry_equiv_pos_site_id
 _symmetry_equiv_pos_as_xyz
  1  'x, y, z'
loop_
 _atom_site_type_symbol
 _atom_site_label
 _atom_site_symmetry_multiplicity
 _atom_site_fract_x
 _atom_site_fract_y
 _atom_site_fract_z
 _atom_site_occupancy
  Mg  Mg1  1  0.44644532  0.35128653  0.49219203  1.0
  Pd  Pd1  1  0.00000000  0.00000000  0.00000000  1.0
  F  F1  1  0.29811871  0.00000000  0.60363698  1.0
  F  F2  1  0.10229191  0.74987823  0.28956556  1.0
  F  F3  1  0.12927169  0.57577622  0.94673598  1.0
  F  F4  1  0.76131910  0.20584241  0.63595146  1.0
  F  F5  1  0.48475823  0.87389302  0.12632862  1.0
  F  F6  1  0.88503438  0.26675701  0.00000000  1.0
