# generated using pymatgen
data_MgZrF6
_symmetry_space_group_name_H-M   'P 1'
_cell_length_a   6.16588879
_cell_length_b   5.64220381
_cell_length_c   6.39982986
_cell_angle_alpha   76.40799713
_cell_angle_beta   66.31707001
_cell_angle_gamma   70.22106934
_symmetry_Int_Tables_number   1
_chemical_formula_structural   MgZrF6
_chemical_formula_sum   'Mg1 Zr1 F6'
_cell_volume   190.59318854
_cell_formula_units_Z   1
loop_
 _symmetry_equiv_pos_site_id
 _symmetry_equiv_pos_as_xyz
  1  'x, y, z'
loop_
 _atom_site_type_symbol
 _atom_site_label
 _atom_site_symmetry_multiplicity
 _atom_site_fract_x
 _atom_site_fract_y
 _atom_site_fract_z
 _atom_site_occupancy
  Mg  Mg1  1  0.56059813  0.54004109  0.42214546  1.0
  Zr  Zr1  1  0.00000000  0.00000000  0.00000000  1.0
  F  F1  1  0.79937333  0.73552334  0.12070233  1.0
  F  F2  1  0.27024505  0.21807280  0.72959411  1.0
  F  F3  1  0.56351310  0.46822512  0.69628644  1.0
  F  F4  1  0.50522757  0.80939424  0.22568411  1.0
  F  F5  1  0.43414983  0.73081326  0.71939945  1.0
  F  F6  1  0.79982758  0.38958013  0.50624615  1.0
