# generated using pymatgen
data_Mn3AlC
_symmetry_space_group_name_H-M   'P 1'
_cell_length_a   5.62764311
_cell_length_b   4.30455351
_cell_length_c   3.30032778
_cell_angle_alpha   91.18149567
_cell_angle_beta   85.50603485
_cell_angle_gamma   90.60932922
_symmetry_Int_Tables_number   1
_chemical_formula_structural   Mn3AlC
_chemical_formula_sum   'Mn3 Al1 C1'
_cell_volume   79.68275755
_cell_formula_units_Z   1
loop_
 _symmetry_equiv_pos_site_id
 _symmetry_equiv_pos_as_xyz
  1  'x, y, z'
loop_
 _atom_site_type_symbol
 _atom_site_label
 _atom_site_symmetry_multiplicity
 _atom_site_fract_x
 _atom_site_fract_y
 _atom_site_fract_z
 _atom_site_occupancy
  Mn  Mn1  1  0.00000000  0.17113021  0.39932123  1.0
  Mn  Mn2  1  0.57557642  0.33674344  0.00000000  1.0
  Mn  Mn3  1  0.47744268  0.00000000  0.47849709  1.0
  Al  Al1  1  0.00000000  0.00000000  0.00000000  1.0
  C  C1  1  0.54006791  0.45143574  0.43426311  1.0
