# generated using pymatgen
data_Mn3Ir
_symmetry_space_group_name_H-M   'P 1'
_cell_length_a   2.85781956
_cell_length_b   6.02515173
_cell_length_c   2.99149370
_cell_angle_alpha   85.24373627
_cell_angle_beta   93.52421570
_cell_angle_gamma   111.65089417
_symmetry_Int_Tables_number   1
_chemical_formula_structural   Mn3Ir
_chemical_formula_sum   'Mn6 Ir2'
_cell_volume   47.68446910
_cell_formula_units_Z   2
loop_
 _symmetry_equiv_pos_site_id
 _symmetry_equiv_pos_as_xyz
  1  'x, y, z'
loop_
 _atom_site_type_symbol
 _atom_site_label
 _atom_site_symmetry_multiplicity
 _atom_site_fract_x
 _atom_site_fract_y
 _atom_site_fract_z
 _atom_site_occupancy
  Mn  Mn1  1  0.26020175  0.40173334  0.45525816  1.0
  Mn  Mn2  1  0.40343556  0.68395758  0.12673360  1.0
  Mn  Mn3  1  0.18144384  0.88683826  0.32247233  1.0
  Mn  Mn4  1  0.79150009  0.64201403  0.83874321  1.0
  Mn  Mn5  1  0.33548135  0.25423813  0.68965495  1.0
  Mn  Mn6  1  0.89029187  0.14431426  0.82981873  1.0
  Ir  Ir1  1  0.53060901  0.33738169  0.27983755  1.0
  Ir  Ir2  1  0.30189222  0.57416713  0.81498408  1.0
