# generated using pymatgen
data_Mn3Zn2O8
_symmetry_space_group_name_H-M   'P 1'
_cell_length_a   5.22140408
_cell_length_b   6.14404774
_cell_length_c   4.87388706
_cell_angle_alpha   93.75926208
_cell_angle_beta   88.92589569
_cell_angle_gamma   75.38495636
_symmetry_Int_Tables_number   1
_chemical_formula_structural   Mn3Zn2O8
_chemical_formula_sum   'Mn3 Zn2 O8'
_cell_volume   150.87135092
_cell_formula_units_Z   1
loop_
 _symmetry_equiv_pos_site_id
 _symmetry_equiv_pos_as_xyz
  1  'x, y, z'
loop_
 _atom_site_type_symbol
 _atom_site_label
 _atom_site_symmetry_multiplicity
 _atom_site_fract_x
 _atom_site_fract_y
 _atom_site_fract_z
 _atom_site_occupancy
  Mn  Mn1  1  0.00000000  0.00000000  0.00000000  1.0
  Mn  Mn2  1  0.65059572  0.11213493  0.73132873  1.0
  Mn  Mn3  1  0.35168940  0.84749901  0.49803233  1.0
  Zn  Zn1  1  0.27449536  0.30944008  0.00000000  1.0
  Zn  Zn2  1  0.68082362  0.65976292  0.91473007  1.0
  O  O1  1  0.55341339  0.49373525  0.57073516  1.0
  O  O2  1  0.22840494  0.45271704  0.47967771  1.0
  O  O3  1  0.25174344  0.00000000  0.67398006  1.0
  O  O4  1  0.89902079  0.87693191  0.41882908  1.0
  O  O5  1  0.23140953  0.68859565  0.78153121  1.0
  O  O6  1  0.58566260  0.13541591  0.94707566  1.0
  O  O7  1  0.33123046  0.88732064  0.00000000  1.0
  O  O8  1  0.93885696  0.30240965  0.26955882  1.0
