# generated using pymatgen
data_MnF2
_symmetry_space_group_name_H-M   'P 1'
_cell_length_a   3.36244301
_cell_length_b   5.02323845
_cell_length_c   4.90435018
_cell_angle_alpha   89.93598734
_cell_angle_beta   90.05803852
_cell_angle_gamma   89.91502872
_symmetry_Int_Tables_number   1
_chemical_formula_structural   MnF2
_chemical_formula_sum   'Mn2 F4'
_cell_volume   82.83602041
_cell_formula_units_Z   2
loop_
 _symmetry_equiv_pos_site_id
 _symmetry_equiv_pos_as_xyz
  1  'x, y, z'
loop_
 _atom_site_type_symbol
 _atom_site_label
 _atom_site_symmetry_multiplicity
 _atom_site_fract_x
 _atom_site_fract_y
 _atom_site_fract_z
 _atom_site_occupancy
  Mn  Mn0  1  0.51639584  0.51017748  0.51252414  1.0
  Mn  Mn1  1  0.01638519  0.01040910  0.01305823  1.0
  F  F2  1  0.01631314  0.70212367  0.71063545  1.0
  F  F3  1  0.51701759  0.82077007  0.21318103  1.0
  F  F4  1  0.01668639  0.32089518  0.31314245  1.0
  F  F5  1  0.51621780  0.20202223  0.81550117  1.0
