# generated using pymatgen
data_MnF2
_symmetry_space_group_name_H-M   'P 1'
_cell_length_a   3.57155115
_cell_length_b   5.67260778
_cell_length_c   3.97068274
_cell_angle_alpha   69.47737057
_cell_angle_beta   89.73080369
_cell_angle_gamma   89.34924066
_symmetry_Int_Tables_number   1
_chemical_formula_structural   MnF2
_chemical_formula_sum   'Mn2 F4'
_cell_volume   75.33557960
_cell_formula_units_Z   2
loop_
 _symmetry_equiv_pos_site_id
 _symmetry_equiv_pos_as_xyz
  1  'x, y, z'
loop_
 _atom_site_type_symbol
 _atom_site_label
 _atom_site_symmetry_multiplicity
 _atom_site_fract_x
 _atom_site_fract_y
 _atom_site_fract_z
 _atom_site_occupancy
  Mn  Mn0  1  0.44444721  0.42763552  0.21011534  1.0
  Mn  Mn1  1  0.94270807  0.97690620  0.97981381  1.0
  F  F2  1  0.94446568  0.61415788  0.92864969  1.0
  F  F3  1  0.44279051  0.79010638  0.26110904  1.0
  F  F4  1  0.94399560  0.14876910  0.38940413  1.0
  F  F5  1  0.44366845  0.25532815  0.80123417  1.0
