# generated using pymatgen
data_MnF3
_symmetry_space_group_name_H-M   'P 1'
_cell_length_a   5.52383137
_cell_length_b   6.21063137
_cell_length_c   5.06336403
_cell_angle_alpha   63.75332642
_cell_angle_beta   59.92738342
_cell_angle_gamma   66.65067291
_symmetry_Int_Tables_number   1
_chemical_formula_structural   MnF3
_chemical_formula_sum   'Mn2 F6'
_cell_volume   131.36427632
_cell_formula_units_Z   2
loop_
 _symmetry_equiv_pos_site_id
 _symmetry_equiv_pos_as_xyz
  1  'x, y, z'
loop_
 _atom_site_type_symbol
 _atom_site_label
 _atom_site_symmetry_multiplicity
 _atom_site_fract_x
 _atom_site_fract_y
 _atom_site_fract_z
 _atom_site_occupancy
  Mn  Mn1  1  0.00000000  0.33314362  0.00000000  1.0
  Mn  Mn2  1  0.55442101  0.00000000  0.48235536  1.0
  F  F1  1  0.50606960  0.47723630  0.12983122  1.0
  F  F2  1  0.36752707  0.74700713  0.71158552  1.0
  F  F3  1  0.85600924  0.68211967  0.29926932  1.0
  F  F4  1  0.14035875  0.17073837  0.13063812  1.0
  F  F5  1  0.18999332  0.30018383  0.89936763  1.0
  F  F6  1  0.78021789  0.71972775  0.66634446  1.0
