# generated using pymatgen
data_Mo
_symmetry_space_group_name_H-M   'P 1'
_cell_length_a   4.11763954
_cell_length_b   4.85151625
_cell_length_c   5.66197586
_cell_angle_alpha   105.42827606
_cell_angle_beta   85.76818848
_cell_angle_gamma   88.52133179
_symmetry_Int_Tables_number   1
_chemical_formula_structural   Mo
_chemical_formula_sum   Mo6
_cell_volume   108.61342050
_cell_formula_units_Z   6
loop_
 _symmetry_equiv_pos_site_id
 _symmetry_equiv_pos_as_xyz
  1  'x, y, z'
loop_
 _atom_site_type_symbol
 _atom_site_label
 _atom_site_symmetry_multiplicity
 _atom_site_fract_x
 _atom_site_fract_y
 _atom_site_fract_z
 _atom_site_occupancy
  Mo  Mo1  1  0.23264831  0.00000000  0.51810205  1.0
  Mo  Mo2  1  0.79666448  0.00000000  0.56175953  1.0
  Mo  Mo3  1  0.00000000  0.71526819  0.38915354  1.0
  Mo  Mo4  1  0.00000000  0.54798484  0.61850142  1.0
  Mo  Mo5  1  0.60992110  0.73358500  0.00000000  1.0
  Mo  Mo6  1  0.60844690  0.32321304  0.00000000  1.0
