# generated using pymatgen
data_MoF3
_symmetry_space_group_name_H-M   'P 1'
_cell_length_a   3.25299168
_cell_length_b   6.79864454
_cell_length_c   7.07616234
_cell_angle_alpha   53.93109512
_cell_angle_beta   55.84495544
_cell_angle_gamma   56.26741791
_symmetry_Int_Tables_number   1
_chemical_formula_structural   MoF3
_chemical_formula_sum   'Mo2 F6'
_cell_volume   98.59212075
_cell_formula_units_Z   2
loop_
 _symmetry_equiv_pos_site_id
 _symmetry_equiv_pos_as_xyz
  1  'x, y, z'
loop_
 _atom_site_type_symbol
 _atom_site_label
 _atom_site_symmetry_multiplicity
 _atom_site_fract_x
 _atom_site_fract_y
 _atom_site_fract_z
 _atom_site_occupancy
  Mo  Mo1  1  0.39882800  0.29773077  0.64529073  1.0
  Mo  Mo2  1  0.00000000  0.00000000  0.00000000  1.0
  F  F1  1  0.41020751  0.90028083  0.13962033  1.0
  F  F2  1  0.68119144  0.11178672  0.32463405  1.0
  F  F3  1  0.87697971  0.71455491  0.29551554  1.0
  F  F4  1  0.20112973  0.91163468  0.58230561  1.0
  F  F5  1  0.60709035  0.19554675  0.84978998  1.0
  F  F6  1  0.18898493  0.10412145  0.90545982  1.0
