# generated using pymatgen
data_MoPH
_symmetry_space_group_name_H-M   'P 1'
_cell_length_a   1.72649074
_cell_length_b   3.83461809
_cell_length_c   3.84282875
_cell_angle_alpha   93.20211029
_cell_angle_beta   88.15715790
_cell_angle_gamma   95.32145691
_symmetry_Int_Tables_number   1
_chemical_formula_structural   MoPH
_chemical_formula_sum   'Mo4 P4 H4'
_cell_volume   25.28267400
_cell_formula_units_Z   4
loop_
 _symmetry_equiv_pos_site_id
 _symmetry_equiv_pos_as_xyz
  1  'x, y, z'
loop_
 _atom_site_type_symbol
 _atom_site_label
 _atom_site_symmetry_multiplicity
 _atom_site_fract_x
 _atom_site_fract_y
 _atom_site_fract_z
 _atom_site_occupancy
  Mo  Mo1  1  0.21656299  0.54292452  0.90445828  1.0
  Mo  Mo2  1  0.35531825  0.91940379  0.70708013  1.0
  Mo  Mo3  1  0.57158303  0.00000000  0.22128189  1.0
  Mo  Mo4  1  0.81410062  0.60443234  0.00000000  1.0
  P  P1  1  0.15156484  0.51382023  0.25728816  1.0
  P  P2  1  0.16319646  0.00000000  0.15453853  1.0
  P  P3  1  0.76378334  0.27247959  0.49954826  1.0
  P  P4  1  0.71476984  0.79420948  0.80221796  1.0
  H  H1  1  0.79277205  0.69967413  0.55364531  1.0
  H  H2  1  0.24252796  0.87263316  0.00000000  1.0
  H  H3  1  0.86611176  0.19677988  0.77817881  1.0
  H  H4  1  0.44635478  0.62540424  0.34273779  1.0
