# generated using pymatgen
data_Na2CN2
_symmetry_space_group_name_H-M   'P 1'
_cell_length_a   3.52850438
_cell_length_b   3.56242759
_cell_length_c   5.59599748
_cell_angle_alpha   76.19706419
_cell_angle_beta   75.18063781
_cell_angle_gamma   88.62354154
_symmetry_Int_Tables_number   1
_chemical_formula_structural   Na2CN2
_chemical_formula_sum   'Na2 C1 N2'
_cell_volume   65.98706411
_cell_formula_units_Z   1
loop_
 _symmetry_equiv_pos_site_id
 _symmetry_equiv_pos_as_xyz
  1  'x, y, z'
loop_
 _atom_site_type_symbol
 _atom_site_label
 _atom_site_symmetry_multiplicity
 _atom_site_fract_x
 _atom_site_fract_y
 _atom_site_fract_z
 _atom_site_occupancy
  Na  Na0  1  0.33714770  0.30039321  0.36880380  1.0
  Na  Na1  1  0.68064951  0.65621711  0.74743868  1.0
  C  C2  1  0.00862203  0.97788829  0.05810562  1.0
  N  N3  1  0.15779040  0.13774266  0.83064069  1.0
  N  N4  1  0.85947306  0.81878880  0.28564387  1.0
