# generated using pymatgen
data_Na2CN2
_symmetry_space_group_name_H-M   'P 1'
_cell_length_a   4.12591913
_cell_length_b   4.64105299
_cell_length_c   5.09856771
_cell_angle_alpha   65.28431159
_cell_angle_beta   62.96428157
_cell_angle_gamma   106.81818049
_symmetry_Int_Tables_number   1
_chemical_formula_structural   Na2CN2
_chemical_formula_sum   'Na2 C1 N2'
_cell_volume   63.63785730
_cell_formula_units_Z   1
loop_
 _symmetry_equiv_pos_site_id
 _symmetry_equiv_pos_as_xyz
  1  'x, y, z'
loop_
 _atom_site_type_symbol
 _atom_site_label
 _atom_site_symmetry_multiplicity
 _atom_site_fract_x
 _atom_site_fract_y
 _atom_site_fract_z
 _atom_site_occupancy
  Na  Na0  1  0.82915653  0.62718268  0.43709386  1.0
  Na  Na1  1  0.84063618  0.32952224  0.12039907  1.0
  C  C2  1  0.85826933  0.99835253  0.65769096  1.0
  N  N3  1  0.63133591  0.99535707  0.94674406  1.0
  N  N4  1  0.10838755  0.00657382  0.76518734  1.0
