# generated using pymatgen
data_Na2H2Pd
_symmetry_space_group_name_H-M   'P 1'
_cell_length_a   3.06286955
_cell_length_b   3.06106186
_cell_length_c   6.73755836
_cell_angle_alpha   93.83609009
_cell_angle_beta   96.98252869
_cell_angle_gamma   98.17415619
_symmetry_Int_Tables_number   1
_chemical_formula_structural   Na2H2Pd
_chemical_formula_sum   'Na2 H2 Pd1'
_cell_volume   61.83510173
_cell_formula_units_Z   1
loop_
 _symmetry_equiv_pos_site_id
 _symmetry_equiv_pos_as_xyz
  1  'x, y, z'
loop_
 _atom_site_type_symbol
 _atom_site_label
 _atom_site_symmetry_multiplicity
 _atom_site_fract_x
 _atom_site_fract_y
 _atom_site_fract_z
 _atom_site_occupancy
  Na  Na1  1  0.73110360  0.82368618  0.45604351  1.0
  Na  Na2  1  0.42818815  0.30722487  0.68387514  1.0
  H  H1  1  0.90050542  0.94105059  0.71631169  1.0
  H  H2  1  0.11527848  0.11113465  0.24035716  1.0
  Pd  Pd1  1  0.00000000  0.00000000  0.00000000  1.0
