# generated using pymatgen
data_Na2Mo2O5F3
_symmetry_space_group_name_H-M   'P 1'
_cell_length_a   10.57906932
_cell_length_b   36.50103172
_cell_length_c   23.60954457
_cell_angle_alpha   131.76352726
_cell_angle_beta   126.74162788
_cell_angle_gamma   44.01965221
_symmetry_Int_Tables_number   1
_chemical_formula_structural   Na2Mo2O5F3
_chemical_formula_sum   'Na2 Mo2 O5 F3'
_cell_volume   4598.73614805
_cell_formula_units_Z   1
loop_
 _symmetry_equiv_pos_site_id
 _symmetry_equiv_pos_as_xyz
  1  'x, y, z'
loop_
 _atom_site_type_symbol
 _atom_site_label
 _atom_site_symmetry_multiplicity
 _atom_site_fract_x
 _atom_site_fract_y
 _atom_site_fract_z
 _atom_site_occupancy
  Na  Na0  1  0.55084418  0.73340364  0.83884434  1.0
  Na  Na1  1  0.21746816  0.81879672  0.05902690  1.0
  Mo  Mo2  1  0.76681696  0.56343533  0.86300730  1.0
  Mo  Mo3  1  0.30937274  0.18895071  0.98611264  1.0
  O  O4  1  0.99972536  0.16487100  0.50475603  1.0
  O  O5  1  0.23828101  0.75600971  0.20118756  1.0
  O  O6  1  0.15679691  0.74863855  0.16629471  1.0
  O  O7  1  0.70776851  0.30306981  0.96312334  1.0
  O  O8  1  0.99609516  0.20773270  0.63749719  1.0
  F  F9  1  0.47677506  0.60411502  0.60632401  1.0
  F  F10  1  0.16107112  0.13413132  0.45834509  1.0
  F  F11  1  0.81601811  0.31650577  0.14380836  1.0
