# generated using pymatgen
data_Na2ZnSe2
_symmetry_space_group_name_H-M   'P 1'
_cell_length_a   7.69129658
_cell_length_b   6.26268578
_cell_length_c   10.54935360
_cell_angle_alpha   134.57878113
_cell_angle_beta   129.37344360
_cell_angle_gamma   79.84873962
_symmetry_Int_Tables_number   1
_chemical_formula_structural   Na2ZnSe2
_chemical_formula_sum   'Na4 Zn2 Se4'
_cell_volume   244.12645814
_cell_formula_units_Z   2
loop_
 _symmetry_equiv_pos_site_id
 _symmetry_equiv_pos_as_xyz
  1  'x, y, z'
loop_
 _atom_site_type_symbol
 _atom_site_label
 _atom_site_symmetry_multiplicity
 _atom_site_fract_x
 _atom_site_fract_y
 _atom_site_fract_z
 _atom_site_occupancy
  Na  Na1  1  0.13452211  0.41973835  0.21721125  1.0
  Na  Na2  1  0.90275389  0.55602539  0.48766488  1.0
  Na  Na3  1  0.50629550  0.36302090  0.70321888  1.0
  Na  Na4  1  0.76458102  0.47976953  0.13715857  1.0
  Zn  Zn1  1  0.26465318  0.10886237  0.00000000  1.0
  Zn  Zn2  1  0.89953709  0.00000000  0.00000000  1.0
  Se  Se1  1  0.49288425  0.38644350  0.17801580  1.0
  Se  Se2  1  0.22826585  0.77560979  0.75528520  1.0
  Se  Se3  1  0.82446134  0.14336079  0.79648221  1.0
  Se  Se4  1  0.31383803  0.81250149  0.21730305  1.0
