# generated using pymatgen
data_Na4Sn(GeS3)2
_symmetry_space_group_name_H-M   'P 1'
_cell_length_a   8.66698551
_cell_length_b   6.86963797
_cell_length_c   8.03126144
_cell_angle_alpha   82.92074585
_cell_angle_beta   94.88333893
_cell_angle_gamma   114.95726776
_symmetry_Int_Tables_number   1
_chemical_formula_structural   Na4Sn(GeS3)2
_chemical_formula_sum   'Na4 Sn1 Ge2 S6'
_cell_volume   429.92653281
_cell_formula_units_Z   1
loop_
 _symmetry_equiv_pos_site_id
 _symmetry_equiv_pos_as_xyz
  1  'x, y, z'
loop_
 _atom_site_type_symbol
 _atom_site_label
 _atom_site_symmetry_multiplicity
 _atom_site_fract_x
 _atom_site_fract_y
 _atom_site_fract_z
 _atom_site_occupancy
  Na  Na1  1  0.14737791  0.34450340  0.00000000  1.0
  Na  Na2  1  0.43053281  0.33960956  0.49248812  1.0
  Na  Na3  1  0.60036069  0.71700811  0.60265529  1.0
  Na  Na4  1  0.15277895  0.83571696  0.00000000  1.0
  Sn  Sn1  1  0.67091537  0.17501804  0.00000000  1.0
  Ge  Ge1  1  0.00000000  0.10572648  0.29588228  1.0
  Ge  Ge2  1  0.92319965  0.86922550  0.60444123  1.0
  S  S1  1  0.00000000  0.70149940  0.44551599  1.0
  S  S2  1  0.26059368  0.00000000  0.24627331  1.0
  S  S3  1  0.91368073  0.73812848  0.83483332  1.0
  S  S4  1  0.78698039  0.93605709  0.69967258  1.0
  S  S5  1  0.66144657  0.75007057  0.28431046  1.0
  S  S6  1  0.22003385  0.47562227  0.82972080  1.0
