# generated using pymatgen
data_Na4Zn2Se5
_symmetry_space_group_name_H-M   'P 1'
_cell_length_a   5.37315655
_cell_length_b   7.70433855
_cell_length_c   8.24563408
_cell_angle_alpha   108.51803589
_cell_angle_beta   115.18093872
_cell_angle_gamma   87.12488556
_symmetry_Int_Tables_number   1
_chemical_formula_structural   Na4Zn2Se5
_chemical_formula_sum   'Na4 Zn2 Se5'
_cell_volume   291.46972204
_cell_formula_units_Z   1
loop_
 _symmetry_equiv_pos_site_id
 _symmetry_equiv_pos_as_xyz
  1  'x, y, z'
loop_
 _atom_site_type_symbol
 _atom_site_label
 _atom_site_symmetry_multiplicity
 _atom_site_fract_x
 _atom_site_fract_y
 _atom_site_fract_z
 _atom_site_occupancy
  Na  Na1  1  0.00000000  0.66096902  0.15310463  1.0
  Na  Na2  1  0.78609025  0.62171835  0.68451744  1.0
  Na  Na3  1  0.48375764  0.20583364  0.56837964  1.0
  Na  Na4  1  0.73429447  0.80571306  0.49059412  1.0
  Zn  Zn1  1  0.12556785  0.13678092  0.11630511  1.0
  Zn  Zn2  1  0.70933157  0.14942291  0.00000000  1.0
  Se  Se1  1  0.68583119  0.28274134  0.11985064  1.0
  Se  Se2  1  0.28700924  0.78541422  0.73730427  1.0
  Se  Se3  1  0.89335907  0.00000000  0.62812972  1.0
  Se  Se4  1  0.00000000  0.95259374  0.25569519  1.0
  Se  Se5  1  0.00000000  0.00000000  0.00000000  1.0
