# generated using pymatgen
data_NaBrF4
_symmetry_space_group_name_H-M   'P 1'
_cell_length_a   7.92761129
_cell_length_b   7.64812600
_cell_length_c   7.46649230
_cell_angle_alpha   115.99671378
_cell_angle_beta   136.94444371
_cell_angle_gamma   82.31844180
_symmetry_Int_Tables_number   1
_chemical_formula_structural   NaBrF4
_chemical_formula_sum   'Na2 Br2 F8'
_cell_volume   264.63581670
_cell_formula_units_Z   2
loop_
 _symmetry_equiv_pos_site_id
 _symmetry_equiv_pos_as_xyz
  1  'x, y, z'
loop_
 _atom_site_type_symbol
 _atom_site_label
 _atom_site_symmetry_multiplicity
 _atom_site_fract_x
 _atom_site_fract_y
 _atom_site_fract_z
 _atom_site_occupancy
  Na  Na0  1  0.99763268  0.24916127  0.14784823  1.0
  Na  Na1  1  0.66336745  0.41377133  0.57140997  1.0
  Br  Br2  1  0.03294579  0.82221574  0.99196768  1.0
  Br  Br3  1  0.47727805  0.01137828  0.97270380  1.0
  F  F4  1  0.24627844  0.75016639  0.29259672  1.0
  F  F5  1  0.74434542  0.19821443  0.69899050  1.0
  F  F6  1  0.89921346  0.51210028  0.24106516  1.0
  F  F7  1  0.55016518  0.27936930  0.10763786  1.0
  F  F8  1  0.35890574  0.07770553  0.12556532  1.0
  F  F9  1  0.01018903  0.55965128  0.74673900  1.0
  F  F10  1  0.63988867  0.00417031  0.88436829  1.0
  F  F11  1  0.87615894  0.91305027  0.71662790  1.0
