# generated using pymatgen
data_NaMoO3F
_symmetry_space_group_name_H-M   'P 1'
_cell_length_a   4.85296869
_cell_length_b   7.18897717
_cell_length_c   8.23200152
_cell_angle_alpha   77.48020421
_cell_angle_beta   78.55787904
_cell_angle_gamma   88.07378731
_symmetry_Int_Tables_number   1
_chemical_formula_structural   NaMoO3F
_chemical_formula_sum   'Na2 Mo2 O6 F2'
_cell_volume   274.78249954
_cell_formula_units_Z   2
loop_
 _symmetry_equiv_pos_site_id
 _symmetry_equiv_pos_as_xyz
  1  'x, y, z'
loop_
 _atom_site_type_symbol
 _atom_site_label
 _atom_site_symmetry_multiplicity
 _atom_site_fract_x
 _atom_site_fract_y
 _atom_site_fract_z
 _atom_site_occupancy
  Na  Na0  1  0.19397740  0.82332974  0.73628729  1.0
  Na  Na1  1  0.81779095  0.00961410  0.27896468  1.0
  Mo  Mo2  1  0.47604424  0.27227878  0.42756335  1.0
  Mo  Mo3  1  0.65131040  0.64618268  0.54638834  1.0
  O  O4  1  0.01294314  0.20329953  0.98470835  1.0
  O  O5  1  0.67702243  0.74515657  0.78946990  1.0
  O  O6  1  0.35250643  0.41990773  0.83320271  1.0
  O  O7  1  0.69980729  0.19409479  0.98001084  1.0
  O  O8  1  0.15807793  0.26877036  0.61398641  1.0
  O  O9  1  0.16697433  0.16967543  0.10482655  1.0
  F  F10  1  0.45254383  0.88218357  0.44790679  1.0
  F  F11  1  0.73331118  0.24519738  0.59512772  1.0
