# generated using pymatgen
data_NaMo2HO8
_symmetry_space_group_name_H-M   'P 1'
_cell_length_a   6.60568940
_cell_length_b   7.55029239
_cell_length_c   7.69828472
_cell_angle_alpha   125.62845426
_cell_angle_beta   138.81943845
_cell_angle_gamma   55.47869343
_symmetry_Int_Tables_number   1
_chemical_formula_structural   NaMo2HO8
_chemical_formula_sum   'Na1 Mo2 H1 O8'
_cell_volume   199.49382036
_cell_formula_units_Z   1
loop_
 _symmetry_equiv_pos_site_id
 _symmetry_equiv_pos_as_xyz
  1  'x, y, z'
loop_
 _atom_site_type_symbol
 _atom_site_label
 _atom_site_symmetry_multiplicity
 _atom_site_fract_x
 _atom_site_fract_y
 _atom_site_fract_z
 _atom_site_occupancy
  Na  Na0  1  0.03260746  0.96210380  0.96824285  1.0
  Mo  Mo1  1  0.50157471  0.64508110  0.04827199  1.0
  Mo  Mo2  1  0.50749757  0.71116370  0.52616943  1.0
  H  H3  1  0.78908381  0.41373166  0.55774550  1.0
  O  O4  1  0.42213439  0.22705899  0.34564718  1.0
  O  O5  1  0.64808968  0.80014853  0.45971525  1.0
  O  O6  1  0.37912966  0.74248043  0.66947846  1.0
  O  O7  1  0.00301171  0.95281675  0.37974209  1.0
  O  O8  1  0.32476323  0.87478470  0.93893665  1.0
  O  O9  1  0.00138103  0.34106591  0.00174886  1.0
  O  O10  1  0.02750082  0.63676222  0.75533198  1.0
  O  O11  1  0.87442561  0.18409847  0.15822599  1.0
