# generated using pymatgen
data_Nb4C3
_symmetry_space_group_name_H-M   'P 1'
_cell_length_a   3.24828243
_cell_length_b   5.46076775
_cell_length_c   2.55929899
_cell_angle_alpha   104.96002197
_cell_angle_beta   96.40174103
_cell_angle_gamma   56.06030655
_symmetry_Int_Tables_number   1
_chemical_formula_structural   Nb4C3
_chemical_formula_sum   'Nb4 C3'
_cell_volume   36.35594274
_cell_formula_units_Z   1
loop_
 _symmetry_equiv_pos_site_id
 _symmetry_equiv_pos_as_xyz
  1  'x, y, z'
loop_
 _atom_site_type_symbol
 _atom_site_label
 _atom_site_symmetry_multiplicity
 _atom_site_fract_x
 _atom_site_fract_y
 _atom_site_fract_z
 _atom_site_occupancy
  Nb  Nb1  1  0.00000000  0.46315336  0.00000000  1.0
  Nb  Nb2  1  0.00000000  0.00000000  0.37315062  1.0
  Nb  Nb3  1  0.51909453  0.00000000  0.00000000  1.0
  Nb  Nb4  1  0.54175842  0.43988603  0.60714018  1.0
  C  C1  1  0.54509044  0.00000000  0.53830063  1.0
  C  C2  1  0.66546196  0.15095034  0.00000000  1.0
  C  C3  1  0.00000000  0.39125508  0.51865292  1.0
