# generated using pymatgen
data_NbAlO4
_symmetry_space_group_name_H-M   'P 1'
_cell_length_a   3.53391440
_cell_length_b   6.81129709
_cell_length_c   7.90305934
_cell_angle_alpha   108.73040028
_cell_angle_beta   92.41111866
_cell_angle_gamma   106.58945282
_symmetry_Int_Tables_number   1
_chemical_formula_structural   NbAlO4
_chemical_formula_sum   'Nb2 Al2 O8'
_cell_volume   170.77225542
_cell_formula_units_Z   2
loop_
 _symmetry_equiv_pos_site_id
 _symmetry_equiv_pos_as_xyz
  1  'x, y, z'
loop_
 _atom_site_type_symbol
 _atom_site_label
 _atom_site_symmetry_multiplicity
 _atom_site_fract_x
 _atom_site_fract_y
 _atom_site_fract_z
 _atom_site_occupancy
  Nb  Nb0  1  0.79398508  0.11269485  0.41699395  1.0
  Nb  Nb1  1  0.49857600  0.01828125  0.84882686  1.0
  Al  Al2  1  0.45503526  0.34530709  0.28818199  1.0
  Al  Al3  1  0.31850943  0.69239976  0.34936663  1.0
  O  O4  1  0.32112013  0.42920093  0.11956735  1.0
  O  O5  1  0.57742632  0.11134733  0.18411089  1.0
  O  O6  1  0.42225137  0.08429058  0.62125746  1.0
  O  O7  1  0.47897237  0.65681971  0.12612723  1.0
  O  O8  1  0.04091322  0.06771562  0.96522719  1.0
  O  O9  1  0.86212620  0.99063320  0.64158526  1.0
  O  O10  1  0.94743182  0.88974485  0.26055722  1.0
  O  O11  1  0.06661068  0.45540205  0.41223872  1.0
