# generated using pymatgen
data_NbB
_symmetry_space_group_name_H-M   'P 1'
_cell_length_a   2.73067474
_cell_length_b   3.06398606
_cell_length_c   5.00169992
_cell_angle_alpha   117.13683319
_cell_angle_beta   95.94440460
_cell_angle_gamma   88.09015656
_symmetry_Int_Tables_number   1
_chemical_formula_structural   NbB
_chemical_formula_sum   'Nb2 B2'
_cell_volume   37.03650891
_cell_formula_units_Z   2
loop_
 _symmetry_equiv_pos_site_id
 _symmetry_equiv_pos_as_xyz
  1  'x, y, z'
loop_
 _atom_site_type_symbol
 _atom_site_label
 _atom_site_symmetry_multiplicity
 _atom_site_fract_x
 _atom_site_fract_y
 _atom_site_fract_z
 _atom_site_occupancy
  Nb  Nb1  1  0.82180083  0.00000000  0.43723267  1.0
  Nb  Nb2  1  0.27826411  0.70568907  0.68850768  1.0
  B  B1  1  0.53205484  0.47839242  0.75641978  1.0
  B  B2  1  0.47588542  0.75521904  0.11887881  1.0
