# generated using pymatgen
data_NbC
_symmetry_space_group_name_H-M   'P 1'
_cell_length_a   3.28305316
_cell_length_b   3.88581181
_cell_length_c   3.45815754
_cell_angle_alpha   87.56531525
_cell_angle_beta   78.48225403
_cell_angle_gamma   116.68540192
_symmetry_Int_Tables_number   1
_chemical_formula_structural   NbC
_chemical_formula_sum   'Nb4 C4'
_cell_volume   38.18147104
_cell_formula_units_Z   4
loop_
 _symmetry_equiv_pos_site_id
 _symmetry_equiv_pos_as_xyz
  1  'x, y, z'
loop_
 _atom_site_type_symbol
 _atom_site_label
 _atom_site_symmetry_multiplicity
 _atom_site_fract_x
 _atom_site_fract_y
 _atom_site_fract_z
 _atom_site_occupancy
  Nb  Nb1  1  0.00000000  0.85418743  0.00000000  1.0
  Nb  Nb2  1  0.00000000  0.21542072  0.54557192  1.0
  Nb  Nb3  1  0.77446991  0.00000000  0.19139600  1.0
  Nb  Nb4  1  0.51809186  0.38109487  0.32581103  1.0
  C  C1  1  0.87660301  0.00000000  0.48912764  1.0
  C  C2  1  0.55481356  0.49393988  0.10392252  1.0
  C  C3  1  0.00000000  0.37975019  0.55076134  1.0
  C  C4  1  0.00000000  0.00000000  0.00000000  1.0
