# generated using pymatgen
data_NbGaO4
_symmetry_space_group_name_H-M   'P 1'
_cell_length_a   5.20919725
_cell_length_b   8.19412372
_cell_length_c   6.04062893
_cell_angle_alpha   113.79311682
_cell_angle_beta   98.41272720
_cell_angle_gamma   96.49114253
_symmetry_Int_Tables_number   1
_chemical_formula_structural   NbGaO4
_chemical_formula_sum   'Nb2 Ga2 O8'
_cell_volume   229.13386818
_cell_formula_units_Z   2
loop_
 _symmetry_equiv_pos_site_id
 _symmetry_equiv_pos_as_xyz
  1  'x, y, z'
loop_
 _atom_site_type_symbol
 _atom_site_label
 _atom_site_symmetry_multiplicity
 _atom_site_fract_x
 _atom_site_fract_y
 _atom_site_fract_z
 _atom_site_occupancy
  Nb  Nb0  1  0.44453614  0.63711736  0.83250229  1.0
  Nb  Nb1  1  0.05859263  0.91013106  0.72469061  1.0
  Ga  Ga2  1  0.97746271  0.34967657  0.68297144  1.0
  Ga  Ga3  1  0.92485400  0.56382921  0.26684052  1.0
  O  O4  1  0.65109258  0.85070139  0.23854004  1.0
  O  O5  1  0.02471548  0.98515841  0.03922127  1.0
  O  O6  1  0.86380155  0.76563744  0.15269919  1.0
  O  O7  1  0.09903168  0.14206022  0.72244425  1.0
  O  O8  1  0.24034404  0.57071676  0.02157637  1.0
  O  O9  1  0.70150221  0.50850967  0.70449757  1.0
  O  O10  1  0.36896296  0.79813403  0.69517755  1.0
  O  O11  1  0.78053099  0.31894655  0.15156811  1.0
