# generated using pymatgen
data_NbRe
_symmetry_space_group_name_H-M   'P 1'
_cell_length_a   3.21547461
_cell_length_b   2.89676476
_cell_length_c   3.71119499
_cell_angle_alpha   81.97230530
_cell_angle_beta   91.45085907
_cell_angle_gamma   104.50009918
_symmetry_Int_Tables_number   1
_chemical_formula_structural   NbRe
_chemical_formula_sum   'Nb1 Re1'
_cell_volume   33.13711657
_cell_formula_units_Z   1
loop_
 _symmetry_equiv_pos_site_id
 _symmetry_equiv_pos_as_xyz
  1  'x, y, z'
loop_
 _atom_site_type_symbol
 _atom_site_label
 _atom_site_symmetry_multiplicity
 _atom_site_fract_x
 _atom_site_fract_y
 _atom_site_fract_z
 _atom_site_occupancy
  Nb  Nb1  1  0.00000000  0.00000000  0.00000000  1.0
  Re  Re1  1  0.49710271  0.55557370  0.39391142  1.0
