# generated using pymatgen
data_NbZn
_symmetry_space_group_name_H-M   'P 1'
_cell_length_a   3.98723435
_cell_length_b   3.14302588
_cell_length_c   2.42096019
_cell_angle_alpha   90.99424744
_cell_angle_beta   86.33205414
_cell_angle_gamma   81.87779236
_symmetry_Int_Tables_number   1
_chemical_formula_structural   NbZn
_chemical_formula_sum   'Nb1 Zn1'
_cell_volume   29.96286987
_cell_formula_units_Z   1
loop_
 _symmetry_equiv_pos_site_id
 _symmetry_equiv_pos_as_xyz
  1  'x, y, z'
loop_
 _atom_site_type_symbol
 _atom_site_label
 _atom_site_symmetry_multiplicity
 _atom_site_fract_x
 _atom_site_fract_y
 _atom_site_fract_z
 _atom_site_occupancy
  Nb  Nb1  1  0.00000000  0.00000000  0.00000000  1.0
  Zn  Zn1  1  0.44432381  0.40473971  0.49308708  1.0
