# generated using pymatgen
data_Nd(NiGe)2
_symmetry_space_group_name_H-M   'P 1'
_cell_length_a   3.70510292
_cell_length_b   4.63215256
_cell_length_c   6.42212963
_cell_angle_alpha   117.53279877
_cell_angle_beta   119.88267517
_cell_angle_gamma   77.96337128
_symmetry_Int_Tables_number   1
_chemical_formula_structural   Nd(NiGe)2
_chemical_formula_sum   'Nd1 Ni2 Ge2'
_cell_volume   84.70914404
_cell_formula_units_Z   1
loop_
 _symmetry_equiv_pos_site_id
 _symmetry_equiv_pos_as_xyz
  1  'x, y, z'
loop_
 _atom_site_type_symbol
 _atom_site_label
 _atom_site_symmetry_multiplicity
 _atom_site_fract_x
 _atom_site_fract_y
 _atom_site_fract_z
 _atom_site_occupancy
  Nd  Nd1  1  0.00000000  0.00000000  0.00000000  1.0
  Ni  Ni1  1  0.71477014  0.31156558  0.53870755  1.0
  Ni  Ni2  1  0.24949089  0.78073651  0.58293921  1.0
  Ge  Ge1  1  0.71029627  0.51177150  0.22462547  1.0
  Ge  Ge2  1  0.26409084  0.36184263  0.72315347  1.0
