# generated using pymatgen
data_Nd2MgAl
_symmetry_space_group_name_H-M   'P 1'
_cell_length_a   5.67181396
_cell_length_b   5.54039383
_cell_length_c   5.24288845
_cell_angle_alpha   58.73648834
_cell_angle_beta   62.49875641
_cell_angle_gamma   48.88359070
_symmetry_Int_Tables_number   1
_chemical_formula_structural   Nd2MgAl
_chemical_formula_sum   'Nd2 Mg1 Al1'
_cell_volume   104.22335080
_cell_formula_units_Z   1
loop_
 _symmetry_equiv_pos_site_id
 _symmetry_equiv_pos_as_xyz
  1  'x, y, z'
loop_
 _atom_site_type_symbol
 _atom_site_label
 _atom_site_symmetry_multiplicity
 _atom_site_fract_x
 _atom_site_fract_y
 _atom_site_fract_z
 _atom_site_occupancy
  Nd  Nd1  1  0.48132175  0.60490429  0.28838709  1.0
  Nd  Nd2  1  0.00000000  0.00000000  0.00000000  1.0
  Mg  Mg1  1  0.74969900  0.75229585  0.79435480  1.0
  Al  Al1  1  0.23725405  0.30609274  0.28281665  1.0
