# generated using pymatgen
data_NdAlO3
_symmetry_space_group_name_H-M   'P 1'
_cell_length_a   5.64826345
_cell_length_b   5.29012632
_cell_length_c   5.33488894
_cell_angle_alpha   63.54277039
_cell_angle_beta   72.29079437
_cell_angle_gamma   64.46043396
_symmetry_Int_Tables_number   1
_chemical_formula_structural   NdAlO3
_chemical_formula_sum   'Nd2 Al2 O6'
_cell_volume   127.52085809
_cell_formula_units_Z   2
loop_
 _symmetry_equiv_pos_site_id
 _symmetry_equiv_pos_as_xyz
  1  'x, y, z'
loop_
 _atom_site_type_symbol
 _atom_site_label
 _atom_site_symmetry_multiplicity
 _atom_site_fract_x
 _atom_site_fract_y
 _atom_site_fract_z
 _atom_site_occupancy
  Nd  Nd1  1  0.76031822  0.71224928  0.77283520  1.0
  Nd  Nd2  1  0.33233225  0.36640441  0.33907217  1.0
  Al  Al1  1  0.47501791  0.59137535  0.48020464  1.0
  Al  Al2  1  0.00000000  0.00000000  0.00000000  1.0
  O  O1  1  0.42949879  0.82127577  0.00000000  1.0
  O  O2  1  0.67442107  0.25381643  0.44227827  1.0
  O  O3  1  0.27709675  0.25119936  0.83040237  1.0
  O  O4  1  0.72078586  0.21888849  0.83611333  1.0
  O  O5  1  0.58097243  0.64052951  0.16844156  1.0
  O  O6  1  0.31359458  0.74012077  0.79570228  1.0
