# generated using pymatgen
data_NdPaO4
_symmetry_space_group_name_H-M   'P 1'
_cell_length_a   27.54367192
_cell_length_b   16.62451088
_cell_length_c   28.08828355
_cell_angle_alpha   132.86326885
_cell_angle_beta   158.42548980
_cell_angle_gamma   52.94834967
_symmetry_Int_Tables_number   1
_chemical_formula_structural   NdPaO4
_chemical_formula_sum   'Nd2 Pa2 O8'
_cell_volume   3444.89778833
_cell_formula_units_Z   2
loop_
 _symmetry_equiv_pos_site_id
 _symmetry_equiv_pos_as_xyz
  1  'x, y, z'
loop_
 _atom_site_type_symbol
 _atom_site_label
 _atom_site_symmetry_multiplicity
 _atom_site_fract_x
 _atom_site_fract_y
 _atom_site_fract_z
 _atom_site_occupancy
  Nd  Nd0  1  0.09623103  0.31841144  0.43607062  1.0
  Nd  Nd1  1  0.18615159  0.22738949  0.28571232  1.0
  Pa  Pa2  1  0.14800004  0.01012062  0.20039938  1.0
  Pa  Pa3  1  0.45230022  0.65206944  0.91510938  1.0
  O  O4  1  0.96089162  0.42761717  0.82487311  1.0
  O  O5  1  0.89143875  0.01510733  0.02341487  1.0
  O  O6  1  0.16749171  0.15255195  0.08492160  1.0
  O  O7  1  0.69632925  0.84270505  0.68095932  1.0
  O  O8  1  0.95133628  0.48502617  0.10513481  1.0
  O  O9  1  0.27150488  0.35976152  0.94427792  1.0
  O  O10  1  0.95209110  0.23592909  0.96540961  1.0
  O  O11  1  0.23203343  0.99558415  0.93878238  1.0
