# generated using pymatgen
data_NdSBr
_symmetry_space_group_name_H-M   'P 1'
_cell_length_a   5.29708329
_cell_length_b   8.70435295
_cell_length_c   7.64214355
_cell_angle_alpha   84.03313973
_cell_angle_beta   94.01083474
_cell_angle_gamma   89.59220315
_symmetry_Int_Tables_number   1
_chemical_formula_structural   NdSBr
_chemical_formula_sum   'Nd4 S4 Br4'
_cell_volume   349.55742215
_cell_formula_units_Z   4
loop_
 _symmetry_equiv_pos_site_id
 _symmetry_equiv_pos_as_xyz
  1  'x, y, z'
loop_
 _atom_site_type_symbol
 _atom_site_label
 _atom_site_symmetry_multiplicity
 _atom_site_fract_x
 _atom_site_fract_y
 _atom_site_fract_z
 _atom_site_occupancy
  Nd  Nd0  1  0.77839768  0.20583368  0.99231636  1.0
  Nd  Nd1  1  0.67778557  0.75367121  0.57002476  1.0
  Nd  Nd2  1  0.22518219  0.66754582  0.06087605  1.0
  Nd  Nd3  1  0.23515990  0.38640478  0.54340289  1.0
  S  S4  1  0.07825158  0.37736111  0.18962113  1.0
  S  S5  1  0.57706213  0.55852264  0.32700507  1.0
  S  S6  1  0.20220593  0.67434358  0.68892729  1.0
  S  S7  1  0.73251272  0.43717912  0.74019271  1.0
  Br  Br8  1  0.20973300  0.92255511  0.29401661  1.0
  Br  Br9  1  0.72784599  0.84357355  0.97227766  1.0
  Br  Br10  1  0.69171037  0.10236178  0.55129156  1.0
  Br  Br11  1  0.25001356  0.13101161  0.85707992  1.0
