# generated using pymatgen
data_NdTlTe2
_symmetry_space_group_name_H-M   'P 1'
_cell_length_a   4.75971603
_cell_length_b   7.19008350
_cell_length_c   7.36824799
_cell_angle_alpha   77.77793884
_cell_angle_beta   84.43466949
_cell_angle_gamma   61.02042389
_symmetry_Int_Tables_number   1
_chemical_formula_structural   NdTlTe2
_chemical_formula_sum   'Nd1 Tl1 Te2'
_cell_volume   215.58482076
_cell_formula_units_Z   1
loop_
 _symmetry_equiv_pos_site_id
 _symmetry_equiv_pos_as_xyz
  1  'x, y, z'
loop_
 _atom_site_type_symbol
 _atom_site_label
 _atom_site_symmetry_multiplicity
 _atom_site_fract_x
 _atom_site_fract_y
 _atom_site_fract_z
 _atom_site_occupancy
  Nd  Nd1  1  0.00000000  0.00000000  0.00000000  1.0
  Tl  Tl1  1  0.59989482  0.52570164  0.54960078  1.0
  Te  Te1  1  0.72977966  0.76503348  0.75100112  1.0
  Te  Te2  1  0.28058773  0.31011182  0.28241497  1.0
