# generated using pymatgen
data_Ni2B3
_symmetry_space_group_name_H-M   'P 1'
_cell_length_a   2.50813222
_cell_length_b   1.78589511
_cell_length_c   5.07299995
_cell_angle_alpha   94.93525696
_cell_angle_beta   92.14451599
_cell_angle_gamma   103.72973633
_symmetry_Int_Tables_number   1
_chemical_formula_structural   Ni2B3
_chemical_formula_sum   'Ni2 B3'
_cell_volume   21.95285214
_cell_formula_units_Z   1
loop_
 _symmetry_equiv_pos_site_id
 _symmetry_equiv_pos_as_xyz
  1  'x, y, z'
loop_
 _atom_site_type_symbol
 _atom_site_label
 _atom_site_symmetry_multiplicity
 _atom_site_fract_x
 _atom_site_fract_y
 _atom_site_fract_z
 _atom_site_occupancy
  Ni  Ni1  1  0.39715910  0.86223733  0.58472550  1.0
  Ni  Ni2  1  0.93854684  0.21628043  0.79011303  1.0
  B  B1  1  0.43196207  0.69039857  0.81755048  1.0
  B  B2  1  0.28406566  0.19567457  0.20117229  1.0
  B  B3  1  0.00000000  0.00000000  0.00000000  1.0
