# generated using pymatgen
data_Ni2Mo
_symmetry_space_group_name_H-M   'P 1'
_cell_length_a   1.66563129
_cell_length_b   2.30519915
_cell_length_c   2.72640872
_cell_angle_alpha   139.20765686
_cell_angle_beta   131.06117249
_cell_angle_gamma   68.40904999
_symmetry_Int_Tables_number   1
_chemical_formula_structural   Ni2Mo
_chemical_formula_sum   'Ni2 Mo1'
_cell_volume   4.97592335
_cell_formula_units_Z   1
loop_
 _symmetry_equiv_pos_site_id
 _symmetry_equiv_pos_as_xyz
  1  'x, y, z'
loop_
 _atom_site_type_symbol
 _atom_site_label
 _atom_site_symmetry_multiplicity
 _atom_site_fract_x
 _atom_site_fract_y
 _atom_site_fract_z
 _atom_site_occupancy
  Ni  Ni1  1  0.39443350  0.85178459  0.00000000  1.0
  Ni  Ni2  1  0.42490959  0.45414764  0.00000000  1.0
  Mo  Mo1  1  0.00000000  0.00000000  0.00000000  1.0
