# generated using pymatgen
data_NiB
_symmetry_space_group_name_H-M   'P 1'
_cell_length_a   2.06230211
_cell_length_b   2.49813032
_cell_length_c   4.15155506
_cell_angle_alpha   87.48159790
_cell_angle_beta   91.91241455
_cell_angle_gamma   96.92521667
_symmetry_Int_Tables_number   1
_chemical_formula_structural   NiB
_chemical_formula_sum   'Ni2 B2'
_cell_volume   21.20334504
_cell_formula_units_Z   2
loop_
 _symmetry_equiv_pos_site_id
 _symmetry_equiv_pos_as_xyz
  1  'x, y, z'
loop_
 _atom_site_type_symbol
 _atom_site_label
 _atom_site_symmetry_multiplicity
 _atom_site_fract_x
 _atom_site_fract_y
 _atom_site_fract_z
 _atom_site_occupancy
  Ni  Ni1  1  0.00000000  0.76585376  0.35710508  1.0
  Ni  Ni2  1  0.78937572  0.17233446  0.81549108  1.0
  B  B1  1  0.36531940  0.64680427  0.85132647  1.0
  B  B2  1  0.11666703  0.17571789  0.00000000  1.0
