# generated using pymatgen
data_NiF3
_symmetry_space_group_name_H-M   'P 1'
_cell_length_a   5.86719561
_cell_length_b   5.15281057
_cell_length_c   4.45160532
_cell_angle_alpha   57.28487396
_cell_angle_beta   54.94560623
_cell_angle_gamma   63.09877777
_symmetry_Int_Tables_number   1
_chemical_formula_structural   NiF3
_chemical_formula_sum   'Ni2 F6'
_cell_volume   90.70180216
_cell_formula_units_Z   2
loop_
 _symmetry_equiv_pos_site_id
 _symmetry_equiv_pos_as_xyz
  1  'x, y, z'
loop_
 _atom_site_type_symbol
 _atom_site_label
 _atom_site_symmetry_multiplicity
 _atom_site_fract_x
 _atom_site_fract_y
 _atom_site_fract_z
 _atom_site_occupancy
  Ni  Ni1  1  0.00000000  0.00000000  0.00000000  1.0
  Ni  Ni2  1  0.52749604  0.74654418  0.59000677  1.0
  F  F1  1  0.58027738  0.30536771  0.83728004  1.0
  F  F2  1  0.90509927  0.57511491  0.22755697  1.0
  F  F3  1  0.39389211  0.91507536  0.73097664  1.0
  F  F4  1  0.34881338  0.73369563  0.14655387  1.0
  F  F5  1  0.27925754  0.38244084  0.82335508  1.0
  F  F6  1  0.91004646  0.00000000  0.39418241  1.0
