# generated using pymatgen
data_OsO5
_symmetry_space_group_name_H-M   'P 1'
_cell_length_a   11.50163115
_cell_length_b   8.71779043
_cell_length_c   17.45508536
_cell_angle_alpha   132.43925647
_cell_angle_beta   36.23203959
_cell_angle_gamma   120.03418945
_symmetry_Int_Tables_number   1
_chemical_formula_structural   OsO5
_chemical_formula_sum   'Os1 O5'
_cell_volume   759.57112431
_cell_formula_units_Z   1
loop_
 _symmetry_equiv_pos_site_id
 _symmetry_equiv_pos_as_xyz
  1  'x, y, z'
loop_
 _atom_site_type_symbol
 _atom_site_label
 _atom_site_symmetry_multiplicity
 _atom_site_fract_x
 _atom_site_fract_y
 _atom_site_fract_z
 _atom_site_occupancy
  Os  Os0  1  0.69643970  0.91619782  0.29677399  1.0
  O  O1  1  0.36523669  0.54466498  0.47211452  1.0
  O  O2  1  0.45849894  0.06710772  0.06003643  1.0
  O  O3  1  0.86582933  0.28937521  0.47412727  1.0
  O  O4  1  0.44401745  0.87737365  0.00398658  1.0
  O  O5  1  0.17916260  0.22866290  0.30506613  1.0
