# generated using pymatgen
data_PaHO4
_symmetry_space_group_name_H-M   'P 1'
_cell_length_a   7.44562140
_cell_length_b   11.78229194
_cell_length_c   10.00434730
_cell_angle_alpha   128.34929030
_cell_angle_beta   103.78582542
_cell_angle_gamma   102.58579288
_symmetry_Int_Tables_number   1
_chemical_formula_structural   PaHO4
_chemical_formula_sum   'Pa2 H2 O8'
_cell_volume   586.34318210
_cell_formula_units_Z   2
loop_
 _symmetry_equiv_pos_site_id
 _symmetry_equiv_pos_as_xyz
  1  'x, y, z'
loop_
 _atom_site_type_symbol
 _atom_site_label
 _atom_site_symmetry_multiplicity
 _atom_site_fract_x
 _atom_site_fract_y
 _atom_site_fract_z
 _atom_site_occupancy
  Pa  Pa0  1  0.26649801  0.40832060  0.65480988  1.0
  Pa  Pa1  1  0.26695829  0.59993625  0.74222652  1.0
  H  H2  1  0.52476841  0.48729680  0.01091687  1.0
  H  H3  1  0.44912436  0.71981356  0.59900454  1.0
  O  O4  1  0.91961080  0.69583276  0.73080046  1.0
  O  O5  1  0.71270456  0.24264138  0.96019292  1.0
  O  O6  1  0.30790866  0.19067658  0.80122654  1.0
  O  O7  1  0.80908687  0.87129424  0.90504860  1.0
  O  O8  1  0.30991133  0.08671156  0.88222457  1.0
  O  O9  1  0.79736830  0.25916813  0.37900110  1.0
  O  O10  1  0.17362337  0.85661561  0.59854043  1.0
  O  O11  1  0.59202032  0.81597938  0.96404732  1.0
