# generated using pymatgen
data_PaO2
_symmetry_space_group_name_H-M   'P 1'
_cell_length_a   3.77835989
_cell_length_b   3.47262907
_cell_length_c   3.79725695
_cell_angle_alpha   59.76962280
_cell_angle_beta   70.40499878
_cell_angle_gamma   63.05144501
_symmetry_Int_Tables_number   1
_chemical_formula_structural   PaO2
_chemical_formula_sum   'Pa1 O2'
_cell_volume   37.99976517
_cell_formula_units_Z   1
loop_
 _symmetry_equiv_pos_site_id
 _symmetry_equiv_pos_as_xyz
  1  'x, y, z'
loop_
 _atom_site_type_symbol
 _atom_site_label
 _atom_site_symmetry_multiplicity
 _atom_site_fract_x
 _atom_site_fract_y
 _atom_site_fract_z
 _atom_site_occupancy
  Pa  Pa1  1  0.00000000  0.00000000  0.00000000  1.0
  O  O1  1  0.17048147  0.23072162  0.19029659  1.0
  O  O2  1  0.80405259  0.75378907  0.75554937  1.0
