# generated using pymatgen
data_PaRh3
_symmetry_space_group_name_H-M   'P 1'
_cell_length_a   3.70813251
_cell_length_b   3.00320053
_cell_length_c   3.17893720
_cell_angle_alpha   89.95503235
_cell_angle_beta   86.99761200
_cell_angle_gamma   76.28005219
_symmetry_Int_Tables_number   1
_chemical_formula_structural   PaRh3
_chemical_formula_sum   'Pa1 Rh3'
_cell_volume   34.34168555
_cell_formula_units_Z   1
loop_
 _symmetry_equiv_pos_site_id
 _symmetry_equiv_pos_as_xyz
  1  'x, y, z'
loop_
 _atom_site_type_symbol
 _atom_site_label
 _atom_site_symmetry_multiplicity
 _atom_site_fract_x
 _atom_site_fract_y
 _atom_site_fract_z
 _atom_site_occupancy
  Pa  Pa1  1  0.00000000  0.00000000  0.00000000  1.0
  Rh  Rh1  1  0.46663314  0.00000000  0.49725547  1.0
  Rh  Rh2  1  0.00000000  0.47957170  0.37990946  1.0
  Rh  Rh3  1  0.62263829  0.52556074  0.00000000  1.0
