# generated using pymatgen
data_Pb2ClOF
_symmetry_space_group_name_H-M   'P 1'
_cell_length_a   9.02393539
_cell_length_b   8.70751878
_cell_length_c   11.96445446
_cell_angle_alpha   73.27302779
_cell_angle_beta   50.76512886
_cell_angle_gamma   93.67537246
_symmetry_Int_Tables_number   1
_chemical_formula_structural   Pb2ClOF
_chemical_formula_sum   'Pb4 Cl2 O2 F2'
_cell_volume   657.85511102
_cell_formula_units_Z   2
loop_
 _symmetry_equiv_pos_site_id
 _symmetry_equiv_pos_as_xyz
  1  'x, y, z'
loop_
 _atom_site_type_symbol
 _atom_site_label
 _atom_site_symmetry_multiplicity
 _atom_site_fract_x
 _atom_site_fract_y
 _atom_site_fract_z
 _atom_site_occupancy
  Pb  Pb0  1  0.79909660  0.35923761  0.70383842  1.0
  Pb  Pb1  1  0.70594043  0.44692533  0.27995416  1.0
  Pb  Pb2  1  0.87083564  0.01787151  0.63340089  1.0
  Pb  Pb3  1  0.97511753  0.87100465  0.28652200  1.0
  Cl  Cl4  1  0.85333418  0.40952382  0.17683104  1.0
  Cl  Cl5  1  0.38712942  0.72767099  0.74524252  1.0
  O  O6  1  0.10084169  0.14682699  0.98653360  1.0
  O  O7  1  0.79642053  0.91907733  0.01030604  1.0
  F  F8  1  0.02566858  0.02236837  0.29832084  1.0
  F  F9  1  0.16098346  0.19931823  0.33133699  1.0
