# generated using pymatgen
data_Pb4Cl2O2F3
_symmetry_space_group_name_H-M   'P 1'
_cell_length_a   8.05499065
_cell_length_b   6.39541194
_cell_length_c   5.59821353
_cell_angle_alpha   91.12242229
_cell_angle_beta   80.88279352
_cell_angle_gamma   117.92443346
_symmetry_Int_Tables_number   1
_chemical_formula_structural   Pb4Cl2O2F3
_chemical_formula_sum   'Pb4 Cl2 O2 F3'
_cell_volume   251.10048742
_cell_formula_units_Z   1
loop_
 _symmetry_equiv_pos_site_id
 _symmetry_equiv_pos_as_xyz
  1  'x, y, z'
loop_
 _atom_site_type_symbol
 _atom_site_label
 _atom_site_symmetry_multiplicity
 _atom_site_fract_x
 _atom_site_fract_y
 _atom_site_fract_z
 _atom_site_occupancy
  Pb  Pb0  1  0.74383742  0.53311093  0.63324116  1.0
  Pb  Pb1  1  0.12131164  0.29984018  0.47410250  1.0
  Pb  Pb2  1  0.73766936  0.99608794  0.10537519  1.0
  Pb  Pb3  1  0.11319534  0.73380364  0.01275045  1.0
  Cl  Cl4  1  0.43090866  0.18584084  0.12276199  1.0
  Cl  Cl5  1  0.45049352  0.68778946  0.75262571  1.0
  O  O6  1  0.97603080  0.36009274  0.18022318  1.0
  O  O7  1  0.86953127  0.77543318  0.92441181  1.0
  F  F8  1  0.92429643  0.89344622  0.37678347  1.0
  F  F9  1  0.82563185  0.19731107  0.72599765  1.0
  F  F10  1  0.09231528  0.65245770  0.58902610  1.0
