# generated using pymatgen
data_PbSeO3
_symmetry_space_group_name_H-M   'P 1'
_cell_length_a   4.10288906
_cell_length_b   4.21308517
_cell_length_c   7.48137903
_cell_angle_alpha   80.01532745
_cell_angle_beta   107.01261902
_cell_angle_gamma   82.17109680
_symmetry_Int_Tables_number   1
_chemical_formula_structural   PbSeO3
_chemical_formula_sum   'Pb2 Se2 O6'
_cell_volume   119.36606785
_cell_formula_units_Z   2
loop_
 _symmetry_equiv_pos_site_id
 _symmetry_equiv_pos_as_xyz
  1  'x, y, z'
loop_
 _atom_site_type_symbol
 _atom_site_label
 _atom_site_symmetry_multiplicity
 _atom_site_fract_x
 _atom_site_fract_y
 _atom_site_fract_z
 _atom_site_occupancy
  Pb  Pb1  1  0.33213997  0.72889137  0.60870123  1.0
  Pb  Pb2  1  0.61745048  0.00000000  0.29584333  1.0
  Se  Se1  1  0.95254201  0.21187833  0.62569934  1.0
  Se  Se2  1  0.00000000  0.58330059  0.41997367  1.0
  O  O1  1  0.20856404  0.96762037  0.43995345  1.0
  O  O2  1  0.84729034  0.49290121  0.75429976  1.0
  O  O3  1  0.80647612  0.00000000  0.91383302  1.0
  O  O4  1  0.32632360  0.51145864  0.32711741  1.0
  O  O5  1  0.78838611  0.55800343  0.00000000  1.0
  O  O6  1  0.36857280  0.17789476  0.91894644  1.0
