# generated using pymatgen
data_PdPbF4
_symmetry_space_group_name_H-M   'P 1'
_cell_length_a   6.24906540
_cell_length_b   5.59311581
_cell_length_c   6.58641911
_cell_angle_alpha   116.37976837
_cell_angle_beta   126.28310394
_cell_angle_gamma   88.51473236
_symmetry_Int_Tables_number   1
_chemical_formula_structural   PdPbF4
_chemical_formula_sum   'Pd2 Pb2 F8'
_cell_volume   157.03773849
_cell_formula_units_Z   2
loop_
 _symmetry_equiv_pos_site_id
 _symmetry_equiv_pos_as_xyz
  1  'x, y, z'
loop_
 _atom_site_type_symbol
 _atom_site_label
 _atom_site_symmetry_multiplicity
 _atom_site_fract_x
 _atom_site_fract_y
 _atom_site_fract_z
 _atom_site_occupancy
  Pd  Pd1  1  0.66739321  0.00000000  0.00000000  1.0
  Pd  Pd2  1  0.00000000  0.65301293  0.00000000  1.0
  Pb  Pb1  1  0.82850480  0.68180197  0.41462833  1.0
  Pb  Pb2  1  0.10760438  0.23952857  0.51637995  1.0
  F  F1  1  0.90848279  0.62399423  0.13660628  1.0
  F  F2  1  0.41403881  0.13960636  0.72422069  1.0
  F  F3  1  0.00000000  0.54097837  0.62525880  1.0
  F  F4  1  0.20631710  0.00000000  0.90407753  1.0
  F  F5  1  0.27050149  0.67461282  0.14924681  1.0
  F  F6  1  0.78599286  0.21240421  0.24583890  1.0
  F  F7  1  0.80624056  0.87394077  0.45315295  1.0
  F  F8  1  0.29108316  0.72547543  0.56570750  1.0
