# generated using pymatgen
data_Pm2HPb
_symmetry_space_group_name_H-M   'P 1'
_cell_length_a   4.86827993
_cell_length_b   5.28516006
_cell_length_c   5.38704681
_cell_angle_alpha   63.46229935
_cell_angle_beta   60.00293732
_cell_angle_gamma   65.67964935
_symmetry_Int_Tables_number   1
_chemical_formula_structural   Pm2HPb
_chemical_formula_sum   'Pm2 H1 Pb1'
_cell_volume   104.16766070
_cell_formula_units_Z   1
loop_
 _symmetry_equiv_pos_site_id
 _symmetry_equiv_pos_as_xyz
  1  'x, y, z'
loop_
 _atom_site_type_symbol
 _atom_site_label
 _atom_site_symmetry_multiplicity
 _atom_site_fract_x
 _atom_site_fract_y
 _atom_site_fract_z
 _atom_site_occupancy
  Pm  Pm1  1  0.69987953  0.72158605  0.66277540  1.0
  Pm  Pm2  1  0.37594819  0.34126776  0.37543601  1.0
  H  H1  1  0.42117763  0.52996641  0.40908819  1.0
  Pb  Pb1  1  0.00000000  0.00000000  0.00000000  1.0
