# generated using pymatgen
data_PmCdAg2
_symmetry_space_group_name_H-M   'P 1'
_cell_length_a   5.45934677
_cell_length_b   4.65361214
_cell_length_c   5.65108776
_cell_angle_alpha   54.49784088
_cell_angle_beta   60.96955109
_cell_angle_gamma   50.58119583
_symmetry_Int_Tables_number   1
_chemical_formula_structural   PmCdAg2
_chemical_formula_sum   'Pm1 Cd1 Ag2'
_cell_volume   88.72897063
_cell_formula_units_Z   1
loop_
 _symmetry_equiv_pos_site_id
 _symmetry_equiv_pos_as_xyz
  1  'x, y, z'
loop_
 _atom_site_type_symbol
 _atom_site_label
 _atom_site_symmetry_multiplicity
 _atom_site_fract_x
 _atom_site_fract_y
 _atom_site_fract_z
 _atom_site_occupancy
  Pm  Pm1  1  0.79430729  0.83673239  0.83595777  1.0
  Cd  Cd1  1  0.31230402  0.22366524  0.19439471  1.0
  Ag  Ag1  1  0.00000000  0.00000000  0.00000000  1.0
  Ag  Ag2  1  0.41844624  0.62253559  0.60662663  1.0
