# generated using pymatgen
data_PmF3
_symmetry_space_group_name_H-M   'P 1'
_cell_length_a   4.38916540
_cell_length_b   5.15918636
_cell_length_c   4.27740574
_cell_angle_alpha   135.78100586
_cell_angle_beta   130.42539978
_cell_angle_gamma   79.45641327
_symmetry_Int_Tables_number   1
_chemical_formula_structural   PmF3
_chemical_formula_sum   'Pm1 F3'
_cell_volume   43.58353725
_cell_formula_units_Z   1
loop_
 _symmetry_equiv_pos_site_id
 _symmetry_equiv_pos_as_xyz
  1  'x, y, z'
loop_
 _atom_site_type_symbol
 _atom_site_label
 _atom_site_symmetry_multiplicity
 _atom_site_fract_x
 _atom_site_fract_y
 _atom_site_fract_z
 _atom_site_occupancy
  Pm  Pm1  1  0.00000000  0.00000000  0.00000000  1.0
  F  F1  1  0.62375057  0.14300379  0.33601907  1.0
  F  F2  1  0.11283484  0.85000622  0.42703685  1.0
  F  F3  1  0.57257450  0.40846932  0.00000000  1.0
