# generated using pymatgen
data_PmHoRh2
_symmetry_space_group_name_H-M   'P 1'
_cell_length_a   4.48410082
_cell_length_b   5.22973156
_cell_length_c   5.16811132
_cell_angle_alpha   53.95453262
_cell_angle_beta   55.80275726
_cell_angle_gamma   48.14392090
_symmetry_Int_Tables_number   1
_chemical_formula_structural   PmHoRh2
_chemical_formula_sum   'Pm1 Ho1 Rh2'
_cell_volume   70.03992178
_cell_formula_units_Z   1
loop_
 _symmetry_equiv_pos_site_id
 _symmetry_equiv_pos_as_xyz
  1  'x, y, z'
loop_
 _atom_site_type_symbol
 _atom_site_label
 _atom_site_symmetry_multiplicity
 _atom_site_fract_x
 _atom_site_fract_y
 _atom_site_fract_z
 _atom_site_occupancy
  Pm  Pm1  1  0.00000000  0.00000000  0.00000000  1.0
  Ho  Ho1  1  0.46242863  0.56167620  0.62374169  1.0
  Rh  Rh1  1  0.28061718  0.28836650  0.28546327  1.0
  Rh  Rh2  1  0.77331388  0.78814435  0.75712222  1.0
