# generated using pymatgen
data_Rb2AgMoF6
_symmetry_space_group_name_H-M   'P 1'
_cell_length_a   6.75230647
_cell_length_b   8.66761933
_cell_length_c   17.99243891
_cell_angle_alpha   66.03431064
_cell_angle_beta   103.76308903
_cell_angle_gamma   64.25676678
_symmetry_Int_Tables_number   1
_chemical_formula_structural   Rb2AgMoF6
_chemical_formula_sum   'Rb2 Ag1 Mo1 F6'
_cell_volume   748.92380674
_cell_formula_units_Z   1
loop_
 _symmetry_equiv_pos_site_id
 _symmetry_equiv_pos_as_xyz
  1  'x, y, z'
loop_
 _atom_site_type_symbol
 _atom_site_label
 _atom_site_symmetry_multiplicity
 _atom_site_fract_x
 _atom_site_fract_y
 _atom_site_fract_z
 _atom_site_occupancy
  Rb  Rb0  1  0.23862202  0.21153873  0.18369254  1.0
  Rb  Rb1  1  0.27706026  0.25246209  0.08131723  1.0
  Ag  Ag2  1  0.30656307  0.55887201  0.54637144  1.0
  Mo  Mo3  1  0.97179441  0.01539000  0.99837962  1.0
  F  F4  1  0.25420039  0.82442512  0.23467776  1.0
  F  F5  1  0.30652747  0.05050245  0.53449194  1.0
  F  F6  1  0.63994131  0.28418977  0.86912477  1.0
  F  F7  1  0.75615431  0.29318842  0.30020286  1.0
  F  F8  1  0.34340029  0.86101303  0.43236091  1.0
  F  F9  1  0.28070664  0.24068320  0.71176007  1.0
