# generated using pymatgen
data_Rb2CrAgF6
_symmetry_space_group_name_H-M   'P 1'
_cell_length_a   14.98046684
_cell_length_b   8.99551199
_cell_length_c   7.50181550
_cell_angle_alpha   80.03730109
_cell_angle_beta   43.28206743
_cell_angle_gamma   95.38954850
_symmetry_Int_Tables_number   1
_chemical_formula_structural   Rb2CrAgF6
_chemical_formula_sum   'Rb2 Cr1 Ag1 F6'
_cell_volume   645.42529772
_cell_formula_units_Z   1
loop_
 _symmetry_equiv_pos_site_id
 _symmetry_equiv_pos_as_xyz
  1  'x, y, z'
loop_
 _atom_site_type_symbol
 _atom_site_label
 _atom_site_symmetry_multiplicity
 _atom_site_fract_x
 _atom_site_fract_y
 _atom_site_fract_z
 _atom_site_occupancy
  Rb  Rb0  1  0.24003018  0.23081757  0.22283350  1.0
  Rb  Rb1  1  0.75902085  0.61594859  0.16005733  1.0
  Cr  Cr2  1  0.18405126  0.92889190  0.80921659  1.0
  Ag  Ag3  1  0.25539721  0.59713155  0.45027408  1.0
  F  F4  1  0.29899621  0.73950368  0.19209627  1.0
  F  F5  1  0.63829302  0.74289953  0.36587656  1.0
  F  F6  1  0.98847522  0.05078536  0.60662887  1.0
  F  F7  1  0.77185837  0.35088476  0.23105899  1.0
  F  F8  1  0.15588410  0.77679740  0.38191958  1.0
  F  F9  1  0.16301851  0.11619192  0.74923913  1.0
