# generated using pymatgen
data_Rb2FeF4
_symmetry_space_group_name_H-M   'P 1'
_cell_length_a   17.84032336
_cell_length_b   33.70692058
_cell_length_c   30.04557517
_cell_angle_alpha   172.32687709
_cell_angle_beta   160.40096233
_cell_angle_gamma   23.81349666
_symmetry_Int_Tables_number   1
_chemical_formula_structural   Rb2FeF4
_chemical_formula_sum   'Rb2 Fe1 F4'
_cell_volume   734.77723034
_cell_formula_units_Z   1
loop_
 _symmetry_equiv_pos_site_id
 _symmetry_equiv_pos_as_xyz
  1  'x, y, z'
loop_
 _atom_site_type_symbol
 _atom_site_label
 _atom_site_symmetry_multiplicity
 _atom_site_fract_x
 _atom_site_fract_y
 _atom_site_fract_z
 _atom_site_occupancy
  Rb  Rb0  1  0.49310733  0.57748335  0.95249408  1.0
  Rb  Rb1  1  0.35452428  0.47597765  0.87513333  1.0
  Fe  Fe2  1  0.33234907  0.79022553  0.65844965  1.0
  F  F3  1  0.65395801  0.57450887  0.43805180  1.0
  F  F4  1  0.07679113  0.83864849  0.02666529  1.0
  F  F5  1  0.78751646  0.01513688  0.72277986  1.0
  F  F6  1  0.79363985  0.06037318  0.58341678  1.0
