# generated using pymatgen
data_Rb2IrF6
_symmetry_space_group_name_H-M   'P 1'
_cell_length_a   7.42048120
_cell_length_b   6.81111479
_cell_length_c   4.48658228
_cell_angle_alpha   100.72888947
_cell_angle_beta   104.87951660
_cell_angle_gamma   125.54699707
_symmetry_Int_Tables_number   1
_chemical_formula_structural   Rb2IrF6
_chemical_formula_sum   'Rb2 Ir1 F6'
_cell_volume   161.27519364
_cell_formula_units_Z   1
loop_
 _symmetry_equiv_pos_site_id
 _symmetry_equiv_pos_as_xyz
  1  'x, y, z'
loop_
 _atom_site_type_symbol
 _atom_site_label
 _atom_site_symmetry_multiplicity
 _atom_site_fract_x
 _atom_site_fract_y
 _atom_site_fract_z
 _atom_site_occupancy
  Rb  Rb1  1  0.25484937  0.69548303  0.85109138  1.0
  Rb  Rb2  1  0.70983374  0.38370761  0.10859042  1.0
  Ir  Ir1  1  0.00000000  0.00000000  0.65002102  1.0
  F  F1  1  0.24616861  0.49447316  0.16058791  1.0
  F  F2  1  0.77632785  0.89459109  0.29643926  1.0
  F  F3  1  0.12997547  0.81208622  0.19054684  1.0
  F  F4  1  0.72172290  0.72604197  0.75439566  1.0
  F  F5  1  0.23340759  0.18889904  0.71611029  1.0
  F  F6  1  0.90497506  0.10580909  0.72357076  1.0
