# generated using pymatgen
data_Rb2LiTiF6
_symmetry_space_group_name_H-M   'P 1'
_cell_length_a   5.24819660
_cell_length_b   7.04393530
_cell_length_c   5.71942616
_cell_angle_alpha   61.58013916
_cell_angle_beta   51.67161179
_cell_angle_gamma   55.24757004
_symmetry_Int_Tables_number   1
_chemical_formula_structural   Rb2LiTiF6
_chemical_formula_sum   'Rb2 Li1 Ti1 F6'
_cell_volume   133.79770783
_cell_formula_units_Z   1
loop_
 _symmetry_equiv_pos_site_id
 _symmetry_equiv_pos_as_xyz
  1  'x, y, z'
loop_
 _atom_site_type_symbol
 _atom_site_label
 _atom_site_symmetry_multiplicity
 _atom_site_fract_x
 _atom_site_fract_y
 _atom_site_fract_z
 _atom_site_occupancy
  Rb  Rb1  1  0.23098767  0.19126958  0.16923738  1.0
  Rb  Rb2  1  0.81847298  0.80853641  0.75811052  1.0
  Li  Li1  1  0.44603372  0.57683444  0.53337920  1.0
  Ti  Ti1  1  0.00000000  0.00000000  0.00000000  1.0
  F  F1  1  0.16387755  0.11220065  0.61704123  1.0
  F  F2  1  0.25925493  0.78588426  0.80193496  1.0
  F  F3  1  0.67596895  0.60105437  0.13199568  1.0
  F  F4  1  0.30525088  0.61929804  0.30959713  1.0
  F  F5  1  0.58314645  0.27802435  0.71597803  1.0
  F  F6  1  0.81156999  0.38513514  0.25915870  1.0
