# generated using pymatgen
data_Rb2LiHF6
_symmetry_space_group_name_H-M   'P 1'
_cell_length_a   7.07315731
_cell_length_b   7.02610254
_cell_length_c   6.59439564
_cell_angle_alpha   64.78321075
_cell_angle_beta   71.26495361
_cell_angle_gamma   69.60840607
_symmetry_Int_Tables_number   1
_chemical_formula_structural   Rb2LiHF6
_chemical_formula_sum   'Rb2 Li1 H1 F6'
_cell_volume   272.08175318
_cell_formula_units_Z   1
loop_
 _symmetry_equiv_pos_site_id
 _symmetry_equiv_pos_as_xyz
  1  'x, y, z'
loop_
 _atom_site_type_symbol
 _atom_site_label
 _atom_site_symmetry_multiplicity
 _atom_site_fract_x
 _atom_site_fract_y
 _atom_site_fract_z
 _atom_site_occupancy
  Rb  Rb1  1  0.23208410  0.24886221  0.18155763  1.0
  Rb  Rb2  1  0.78653759  0.65902680  0.67465365  1.0
  Li  Li1  1  0.43826517  0.56379068  0.38786978  1.0
  H  H1  1  0.00000000  0.00000000  0.00000000  1.0
  F  F1  1  0.11691058  0.13025096  0.73661399  1.0
  F  F2  1  0.31157517  0.69892824  0.79070151  1.0
  F  F3  1  0.91986251  0.65827543  0.28735986  1.0
  F  F4  1  0.27323771  0.77166563  0.32919669  1.0
  F  F5  1  0.57718647  0.25906527  0.85195142  1.0
  F  F6  1  0.72778219  0.20305042  0.26917973  1.0
