# generated using pymatgen
data_Rb2LiMoF6
_symmetry_space_group_name_H-M   'P 1'
_cell_length_a   7.05077457
_cell_length_b   7.30586958
_cell_length_c   5.40999126
_cell_angle_alpha   66.27261353
_cell_angle_beta   61.86661530
_cell_angle_gamma   58.19957733
_symmetry_Int_Tables_number   1
_chemical_formula_structural   Rb2LiMoF6
_chemical_formula_sum   'Rb2 Li1 Mo1 F6'
_cell_volume   204.41241052
_cell_formula_units_Z   1
loop_
 _symmetry_equiv_pos_site_id
 _symmetry_equiv_pos_as_xyz
  1  'x, y, z'
loop_
 _atom_site_type_symbol
 _atom_site_label
 _atom_site_symmetry_multiplicity
 _atom_site_fract_x
 _atom_site_fract_y
 _atom_site_fract_z
 _atom_site_occupancy
  Rb  Rb1  1  0.24029869  0.31076926  0.22122866  1.0
  Rb  Rb2  1  0.63594222  0.78736722  0.81628984  1.0
  Li  Li1  1  0.49382958  0.52682531  0.53288901  1.0
  Mo  Mo1  1  0.00000000  0.00000000  0.00000000  1.0
  F  F1  1  0.19916371  0.31754261  0.85938346  1.0
  F  F2  1  0.31534386  0.68940139  0.70447612  1.0
  F  F3  1  0.75254083  0.80700517  0.11493248  1.0
  F  F4  1  0.30086541  0.80641550  0.30114394  1.0
  F  F5  1  0.69167608  0.39663118  0.73269868  1.0
  F  F6  1  0.61912864  0.11121284  0.34105363  1.0
