# generated using pymatgen
data_Rb2NaAsCl6
_symmetry_space_group_name_H-M   'P 1'
_cell_length_a   7.44791276
_cell_length_b   7.50574348
_cell_length_c   7.42620213
_cell_angle_alpha   60.43790834
_cell_angle_beta   60.26067247
_cell_angle_gamma   59.27836223
_symmetry_Int_Tables_number   1
_chemical_formula_structural   Rb2NaAsCl6
_chemical_formula_sum   'Rb2 Na1 As1 Cl6'
_cell_volume   293.42815971
_cell_formula_units_Z   1
loop_
 _symmetry_equiv_pos_site_id
 _symmetry_equiv_pos_as_xyz
  1  'x, y, z'
loop_
 _atom_site_type_symbol
 _atom_site_label
 _atom_site_symmetry_multiplicity
 _atom_site_fract_x
 _atom_site_fract_y
 _atom_site_fract_z
 _atom_site_occupancy
  Rb  Rb0  1  0.73893986  0.73928403  0.74651004  1.0
  Rb  Rb1  1  0.24439576  0.23395237  0.23811976  1.0
  Na  Na2  1  0.48951390  0.48702462  0.49783737  1.0
  As  As3  1  0.98971650  0.98837848  0.99758985  1.0
  Cl  Cl4  1  0.79098111  0.17735412  0.28127633  1.0
  Cl  Cl5  1  0.22930018  0.22005324  0.77684410  1.0
  Cl  Cl6  1  0.19064749  0.80075046  0.71264002  1.0
  Cl  Cl7  1  0.25989025  0.70064422  0.20069709  1.0
  Cl  Cl8  1  0.71708566  0.27500862  0.79670704  1.0
  Cl  Cl9  1  0.74716288  0.75895206  0.21726074  1.0
