# generated using pymatgen
data_Rb2NaRhF6
_symmetry_space_group_name_H-M   'P 1'
_cell_length_a   5.56598186
_cell_length_b   5.85721827
_cell_length_c   5.58724546
_cell_angle_alpha   59.70289612
_cell_angle_beta   61.63451767
_cell_angle_gamma   59.47370529
_symmetry_Int_Tables_number   1
_chemical_formula_structural   Rb2NaRhF6
_chemical_formula_sum   'Rb2 Na1 Rh1 F6'
_cell_volume   129.47641106
_cell_formula_units_Z   1
loop_
 _symmetry_equiv_pos_site_id
 _symmetry_equiv_pos_as_xyz
  1  'x, y, z'
loop_
 _atom_site_type_symbol
 _atom_site_label
 _atom_site_symmetry_multiplicity
 _atom_site_fract_x
 _atom_site_fract_y
 _atom_site_fract_z
 _atom_site_occupancy
  Rb  Rb1  1  0.70910561  0.73736864  0.69887489  1.0
  Rb  Rb2  1  0.36746198  0.35396910  0.33391088  1.0
  Na  Na1  1  0.57583821  0.52781707  0.51734442  1.0
  Rh  Rh1  1  0.00000000  0.00000000  0.00000000  1.0
  F  F1  1  0.76999551  0.17562121  0.18005505  1.0
  F  F2  1  0.17246303  0.21660408  0.74509346  1.0
  F  F3  1  0.32777876  0.69381326  0.76503712  1.0
  F  F4  1  0.20042154  0.81000161  0.27883124  1.0
  F  F5  1  0.53377938  0.18130365  0.74662375  1.0
  F  F6  1  0.75403482  0.76999170  0.35388473  1.0
