# generated using pymatgen
data_Rb2Pb2Br7
_symmetry_space_group_name_H-M   'P 1'
_cell_length_a   5.85082480
_cell_length_b   9.92838986
_cell_length_c   9.90730924
_cell_angle_alpha   79.04360534
_cell_angle_beta   86.53921496
_cell_angle_gamma   125.57429647
_symmetry_Int_Tables_number   1
_chemical_formula_structural   Rb2Pb2Br7
_chemical_formula_sum   'Rb2 Pb2 Br7'
_cell_volume   448.91155795
_cell_formula_units_Z   1
loop_
 _symmetry_equiv_pos_site_id
 _symmetry_equiv_pos_as_xyz
  1  'x, y, z'
loop_
 _atom_site_type_symbol
 _atom_site_label
 _atom_site_symmetry_multiplicity
 _atom_site_fract_x
 _atom_site_fract_y
 _atom_site_fract_z
 _atom_site_occupancy
  Rb  Rb0  1  0.01608973  0.64154359  0.72125084  1.0
  Rb  Rb1  1  0.77717459  0.37452439  0.32587108  1.0
  Pb  Pb2  1  0.00779527  0.13749351  0.74339187  1.0
  Pb  Pb3  1  0.80237063  0.88326857  0.25662196  1.0
  Br  Br4  1  0.64804213  0.78369053  0.87821289  1.0
  Br  Br5  1  0.00680910  0.10927313  0.43216762  1.0
  Br  Br6  1  0.21897958  0.80943148  0.25158831  1.0
  Br  Br7  1  0.53382027  0.15990565  0.67258964  1.0
  Br  Br8  1  0.62640786  0.28454653  0.01593360  1.0
  Br  Br9  1  0.46398200  0.57444522  0.49610228  1.0
  Br  Br10  1  0.11311442  0.27150115  0.01222423  1.0
