# generated using pymatgen
data_Rb2P2Pd
_symmetry_space_group_name_H-M   'P 1'
_cell_length_a   7.82913399
_cell_length_b   9.88519382
_cell_length_c   5.18068695
_cell_angle_alpha   82.10288239
_cell_angle_beta   94.52436066
_cell_angle_gamma   128.56806946
_symmetry_Int_Tables_number   1
_chemical_formula_structural   Rb2P2Pd
_chemical_formula_sum   'Rb4 P4 Pd2'
_cell_volume   310.50225950
_cell_formula_units_Z   2
loop_
 _symmetry_equiv_pos_site_id
 _symmetry_equiv_pos_as_xyz
  1  'x, y, z'
loop_
 _atom_site_type_symbol
 _atom_site_label
 _atom_site_symmetry_multiplicity
 _atom_site_fract_x
 _atom_site_fract_y
 _atom_site_fract_z
 _atom_site_occupancy
  Rb  Rb1  1  0.73284203  0.18941459  0.31551051  1.0
  Rb  Rb2  1  0.16492018  0.74676323  0.68236470  1.0
  Rb  Rb3  1  0.35526687  0.67926967  0.31126526  1.0
  Rb  Rb4  1  0.67009771  0.45083228  0.83833158  1.0
  P  P1  1  0.94954973  0.85280663  0.17783308  1.0
  P  P2  1  0.10249987  0.21377507  0.76316869  1.0
  P  P3  1  0.38496619  0.00000000  0.30695590  1.0
  P  P4  1  0.70055854  0.92880428  0.47405043  1.0
  Pd  Pd1  1  0.00000000  0.00000000  0.00000000  1.0
  Pd  Pd2  1  0.00000000  0.00000000  0.66590554  1.0
