# generated using pymatgen
data_Rb2ScTlCl6
_symmetry_space_group_name_H-M   'P 1'
_cell_length_a   7.71182276
_cell_length_b   7.94653859
_cell_length_c   7.55162766
_cell_angle_alpha   61.15082947
_cell_angle_beta   60.86675788
_cell_angle_gamma   60.00667265
_symmetry_Int_Tables_number   1
_chemical_formula_structural   Rb2ScTlCl6
_chemical_formula_sum   'Rb2 Sc1 Tl1 Cl6'
_cell_volume   332.15001092
_cell_formula_units_Z   1
loop_
 _symmetry_equiv_pos_site_id
 _symmetry_equiv_pos_as_xyz
  1  'x, y, z'
loop_
 _atom_site_type_symbol
 _atom_site_label
 _atom_site_symmetry_multiplicity
 _atom_site_fract_x
 _atom_site_fract_y
 _atom_site_fract_z
 _atom_site_occupancy
  Rb  Rb0  1  0.73099666  0.77306649  0.76450001  1.0
  Rb  Rb1  1  0.27592060  0.22898121  0.27003971  1.0
  Sc  Sc2  1  0.00235449  0.00109430  0.01538676  1.0
  Tl  Tl3  1  0.50239680  0.50119455  0.51538751  1.0
  Cl  Cl4  1  0.73846596  0.30748011  0.13968654  1.0
  Cl  Cl5  1  0.26736029  0.18244368  0.77684168  1.0
  Cl  Cl6  1  0.26502251  0.69409396  0.89212813  1.0
  Cl  Cl7  1  0.14457184  0.85331906  0.31423985  1.0
  Cl  Cl8  1  0.86105782  0.14956282  0.71458952  1.0
  Cl  Cl9  1  0.73820340  0.81841791  0.25157395  1.0
