# generated using pymatgen
data_Rb2Se
_symmetry_space_group_name_H-M   'P 1'
_cell_length_a   6.58650017
_cell_length_b   6.42174482
_cell_length_c   5.55543804
_cell_angle_alpha   72.97610474
_cell_angle_beta   57.78696823
_cell_angle_gamma   58.15077972
_symmetry_Int_Tables_number   1
_chemical_formula_structural   Rb2Se
_chemical_formula_sum   'Rb2 Se1'
_cell_volume   168.85367355
_cell_formula_units_Z   1
loop_
 _symmetry_equiv_pos_site_id
 _symmetry_equiv_pos_as_xyz
  1  'x, y, z'
loop_
 _atom_site_type_symbol
 _atom_site_label
 _atom_site_symmetry_multiplicity
 _atom_site_fract_x
 _atom_site_fract_y
 _atom_site_fract_z
 _atom_site_occupancy
  Rb  Rb1  1  0.58592188  0.79247582  0.63532913  1.0
  Rb  Rb2  1  0.20524359  0.23663291  0.11161199  1.0
  Se  Se1  1  0.00000000  0.00000000  0.00000000  1.0
