# generated using pymatgen
data_Rb2TlAgF6
_symmetry_space_group_name_H-M   'P 1'
_cell_length_a   9.00075817
_cell_length_b   6.53268242
_cell_length_c   7.89596701
_cell_angle_alpha   56.96941376
_cell_angle_beta   58.34607697
_cell_angle_gamma   60.45786667
_symmetry_Int_Tables_number   1
_chemical_formula_structural   Rb2TlAgF6
_chemical_formula_sum   'Rb2 Tl1 Ag1 F6'
_cell_volume   317.08819866
_cell_formula_units_Z   1
loop_
 _symmetry_equiv_pos_site_id
 _symmetry_equiv_pos_as_xyz
  1  'x, y, z'
loop_
 _atom_site_type_symbol
 _atom_site_label
 _atom_site_symmetry_multiplicity
 _atom_site_fract_x
 _atom_site_fract_y
 _atom_site_fract_z
 _atom_site_occupancy
  Rb  Rb1  1  0.69257474  0.71916515  0.63357139  1.0
  Rb  Rb2  1  0.24015945  0.33270395  0.32857323  1.0
  Tl  Tl1  1  0.00000000  0.00000000  0.00000000  1.0
  Ag  Ag1  1  0.30144161  0.48048267  0.47973901  1.0
  F  F1  1  0.82212186  0.22129712  0.24741361  1.0
  F  F2  1  0.25751376  0.27621433  0.71935737  1.0
  F  F3  1  0.22670218  0.76667696  0.77377552  1.0
  F  F4  1  0.19949666  0.74567801  0.12731409  1.0
  F  F5  1  0.72256619  0.27181980  0.74905002  1.0
  F  F6  1  0.78882992  0.72106463  0.20316382  1.0
