# generated using pymatgen
data_Rb2ZnAsF6
_symmetry_space_group_name_H-M   'P 1'
_cell_length_a   6.60460186
_cell_length_b   6.68366003
_cell_length_c   6.23311520
_cell_angle_alpha   71.54219818
_cell_angle_beta   71.82718658
_cell_angle_gamma   56.04276276
_symmetry_Int_Tables_number   1
_chemical_formula_structural   Rb2ZnAsF6
_chemical_formula_sum   'Rb2 Zn1 As1 F6'
_cell_volume   213.26996219
_cell_formula_units_Z   1
loop_
 _symmetry_equiv_pos_site_id
 _symmetry_equiv_pos_as_xyz
  1  'x, y, z'
loop_
 _atom_site_type_symbol
 _atom_site_label
 _atom_site_symmetry_multiplicity
 _atom_site_fract_x
 _atom_site_fract_y
 _atom_site_fract_z
 _atom_site_occupancy
  Rb  Rb1  1  0.27098775  0.18226755  0.22519845  1.0
  Rb  Rb2  1  0.56563318  0.65686858  0.63038379  1.0
  Zn  Zn1  1  0.40242252  0.51790440  0.36511827  1.0
  As  As1  1  0.00000000  0.00000000  0.00000000  1.0
  F  F1  1  0.35251856  0.42500013  0.62152445  1.0
  F  F2  1  0.20934936  0.66777962  0.75030899  1.0
  F  F3  1  0.64601445  0.71701419  0.23842314  1.0
  F  F4  1  0.27378649  0.71426153  0.23139781  1.0
  F  F5  1  0.56715775  0.24729994  0.76221544  1.0
  F  F6  1  0.79076725  0.25545821  0.13833673  1.0
