# generated using pymatgen
data_Rb3CrF6
_symmetry_space_group_name_H-M   'P 1'
_cell_length_a   6.67263937
_cell_length_b   7.15624714
_cell_length_c   6.81462145
_cell_angle_alpha   68.79415131
_cell_angle_beta   72.37429047
_cell_angle_gamma   58.22027588
_symmetry_Int_Tables_number   1
_chemical_formula_structural   Rb3CrF6
_chemical_formula_sum   'Rb3 Cr1 F6'
_cell_volume   255.28746493
_cell_formula_units_Z   1
loop_
 _symmetry_equiv_pos_site_id
 _symmetry_equiv_pos_as_xyz
  1  'x, y, z'
loop_
 _atom_site_type_symbol
 _atom_site_label
 _atom_site_symmetry_multiplicity
 _atom_site_fract_x
 _atom_site_fract_y
 _atom_site_fract_z
 _atom_site_occupancy
  Rb  Rb1  1  0.34370711  0.46823657  0.53119701  1.0
  Rb  Rb2  1  0.78345525  0.64999628  0.77422106  1.0
  Rb  Rb3  1  0.18211535  0.24702710  0.21848044  1.0
  Cr  Cr1  1  0.00000000  0.00000000  0.00000000  1.0
  F  F1  1  0.22510907  0.74580908  0.83350348  1.0
  F  F2  1  0.24761894  0.84789008  0.23487499  1.0
  F  F3  1  0.81846511  0.13241529  0.82980168  1.0
  F  F4  1  0.42646274  0.16116548  0.82088250  1.0
  F  F5  1  0.54023504  0.16888031  0.12723503  1.0
  F  F6  1  0.84899819  0.78665143  0.29757145  1.0
