# generated using pymatgen
data_Rb3TiF6
_symmetry_space_group_name_H-M   'P 1'
_cell_length_a   8.30218697
_cell_length_b   6.94932747
_cell_length_c   6.08959341
_cell_angle_alpha   58.86737061
_cell_angle_beta   49.51455688
_cell_angle_gamma   53.36804199
_symmetry_Int_Tables_number   1
_chemical_formula_structural   Rb3TiF6
_chemical_formula_sum   'Rb3 Ti1 F6'
_cell_volume   209.54505311
_cell_formula_units_Z   1
loop_
 _symmetry_equiv_pos_site_id
 _symmetry_equiv_pos_as_xyz
  1  'x, y, z'
loop_
 _atom_site_type_symbol
 _atom_site_label
 _atom_site_symmetry_multiplicity
 _atom_site_fract_x
 _atom_site_fract_y
 _atom_site_fract_z
 _atom_site_occupancy
  Rb  Rb1  1  0.73876202  0.67560482  0.64131427  1.0
  Rb  Rb2  1  0.15846363  0.20778707  0.31601912  1.0
  Rb  Rb3  1  0.62918365  0.53369081  0.28631580  1.0
  Ti  Ti1  1  0.00000000  0.00000000  0.00000000  1.0
  F  F1  1  0.72447830  0.14329162  0.22424632  1.0
  F  F2  1  0.23211086  0.29487109  0.73116660  1.0
  F  F3  1  0.26390254  0.78877521  0.79524958  1.0
  F  F4  1  0.37193313  0.87752450  0.36250424  1.0
  F  F5  1  0.77372020  0.22356573  0.48042512  1.0
  F  F6  1  0.59389365  0.75082785  0.30232185  1.0
