# generated using pymatgen
data_Rb5P3Pd2
_symmetry_space_group_name_H-M   'P 1'
_cell_length_a   6.54779005
_cell_length_b   9.81814289
_cell_length_c   6.87744999
_cell_angle_alpha   94.97307587
_cell_angle_beta   90.93763733
_cell_angle_gamma   116.95597076
_symmetry_Int_Tables_number   1
_chemical_formula_structural   Rb5P3Pd2
_chemical_formula_sum   'Rb5 P3 Pd2'
_cell_volume   391.84068190
_cell_formula_units_Z   1
loop_
 _symmetry_equiv_pos_site_id
 _symmetry_equiv_pos_as_xyz
  1  'x, y, z'
loop_
 _atom_site_type_symbol
 _atom_site_label
 _atom_site_symmetry_multiplicity
 _atom_site_fract_x
 _atom_site_fract_y
 _atom_site_fract_z
 _atom_site_occupancy
  Rb  Rb1  1  0.63358378  0.24002871  0.27497020  1.0
  Rb  Rb2  1  0.21304101  0.67092019  0.83942795  1.0
  Rb  Rb3  1  0.52147502  0.72373402  0.22788897  1.0
  Rb  Rb4  1  0.73584509  0.34595007  0.65803659  1.0
  Rb  Rb5  1  0.93216395  0.74160105  0.26147076  1.0
  P  P1  1  0.00000000  0.17115834  0.71640712  1.0
  P  P2  1  0.35610610  0.00000000  0.32928783  1.0
  P  P3  1  0.81657642  0.92717272  0.59178883  1.0
  Pd  Pd1  1  0.00000000  0.00000000  0.00000000  1.0
  Pd  Pd2  1  0.00000000  0.00000000  0.26743373  1.0
