# generated using pymatgen
data_RbAlO2
_symmetry_space_group_name_H-M   'P 1'
_cell_length_a   16.58382253
_cell_length_b   17.81344900
_cell_length_c   32.91297350
_cell_angle_alpha   34.31804729
_cell_angle_beta   19.32565727
_cell_angle_gamma   32.40255456
_symmetry_Int_Tables_number   1
_chemical_formula_structural   RbAlO2
_chemical_formula_sum   'Rb2 Al2 O4'
_cell_volume   1700.72934003
_cell_formula_units_Z   2
loop_
 _symmetry_equiv_pos_site_id
 _symmetry_equiv_pos_as_xyz
  1  'x, y, z'
loop_
 _atom_site_type_symbol
 _atom_site_label
 _atom_site_symmetry_multiplicity
 _atom_site_fract_x
 _atom_site_fract_y
 _atom_site_fract_z
 _atom_site_occupancy
  Rb  Rb0  1  0.59090969  0.81955666  0.48358350  1.0
  Rb  Rb1  1  0.41618045  0.13599602  0.69855641  1.0
  Al  Al2  1  0.11977558  0.42740058  0.01136208  1.0
  Al  Al3  1  0.02528944  0.45692625  0.00909206  1.0
  O  O4  1  0.91897874  0.43579698  0.28937623  1.0
  O  O5  1  0.52008355  0.09432653  0.12958329  1.0
  O  O6  1  0.07689680  0.85570695  0.05336099  1.0
  O  O7  1  0.99360117  0.83684350  0.71365424  1.0
