# generated using pymatgen
data_RbAu3Se2
_symmetry_space_group_name_H-M   'P 1'
_cell_length_a   6.48740673
_cell_length_b   6.39004469
_cell_length_c   5.85920620
_cell_angle_alpha   92.80509949
_cell_angle_beta   90.33567047
_cell_angle_gamma   109.36317444
_symmetry_Int_Tables_number   1
_chemical_formula_structural   RbAu3Se2
_chemical_formula_sum   'Rb1 Au3 Se2'
_cell_volume   228.81591685
_cell_formula_units_Z   1
loop_
 _symmetry_equiv_pos_site_id
 _symmetry_equiv_pos_as_xyz
  1  'x, y, z'
loop_
 _atom_site_type_symbol
 _atom_site_label
 _atom_site_symmetry_multiplicity
 _atom_site_fract_x
 _atom_site_fract_y
 _atom_site_fract_z
 _atom_site_occupancy
  Rb  Rb1  1  0.00000000  0.00000000  0.46160927  1.0
  Au  Au1  1  0.17873633  0.71100116  0.15417972  1.0
  Au  Au2  1  0.48587140  0.00000000  0.00000000  1.0
  Au  Au3  1  0.49750113  0.49381495  0.00000000  1.0
  Se  Se1  1  0.49004135  0.68814927  0.66275811  1.0
  Se  Se2  1  0.85449159  0.24964562  0.19981417  1.0
