# generated using pymatgen
data_RbCuO2
_symmetry_space_group_name_H-M   'P 1'
_cell_length_a   4.82143402
_cell_length_b   4.61968422
_cell_length_c   6.48326778
_cell_angle_alpha   88.81763458
_cell_angle_beta   106.67781830
_cell_angle_gamma   93.11058807
_symmetry_Int_Tables_number   1
_chemical_formula_structural   RbCuO2
_chemical_formula_sum   'Rb2 Cu2 O4'
_cell_volume   138.12474886
_cell_formula_units_Z   2
loop_
 _symmetry_equiv_pos_site_id
 _symmetry_equiv_pos_as_xyz
  1  'x, y, z'
loop_
 _atom_site_type_symbol
 _atom_site_label
 _atom_site_symmetry_multiplicity
 _atom_site_fract_x
 _atom_site_fract_y
 _atom_site_fract_z
 _atom_site_occupancy
  Rb  Rb1  1  0.35550815  0.86810195  0.83924389  1.0
  Rb  Rb2  1  0.79138172  0.22700977  0.54649073  1.0
  Cu  Cu1  1  0.92250025  0.10557711  0.90995491  1.0
  Cu  Cu2  1  0.14915082  0.73705924  0.00000000  1.0
  O  O1  1  0.87852126  0.62111270  0.69351733  1.0
  O  O2  1  0.00000000  0.49235982  0.12570760  1.0
  O  O3  1  0.89487690  0.94292068  0.73594093  1.0
  O  O4  1  0.00000000  0.00000000  0.25460392  1.0
