# generated using pymatgen
data_RbHS
_symmetry_space_group_name_H-M   'P 1'
_cell_length_a   4.77812674
_cell_length_b   6.33566902
_cell_length_c   7.19691831
_cell_angle_alpha   108.56559723
_cell_angle_beta   116.42018488
_cell_angle_gamma   65.06548325
_symmetry_Int_Tables_number   1
_chemical_formula_structural   RbHS
_chemical_formula_sum   'Rb2 H2 S2'
_cell_volume   174.61737251
_cell_formula_units_Z   2
loop_
 _symmetry_equiv_pos_site_id
 _symmetry_equiv_pos_as_xyz
  1  'x, y, z'
loop_
 _atom_site_type_symbol
 _atom_site_label
 _atom_site_symmetry_multiplicity
 _atom_site_fract_x
 _atom_site_fract_y
 _atom_site_fract_z
 _atom_site_occupancy
  Rb  Rb0  1  0.27311971  0.23480950  0.65520018  1.0
  Rb  Rb1  1  0.71859376  0.71554273  0.21572016  1.0
  H  H2  1  0.32368241  0.19493492  0.10697693  1.0
  H  H3  1  0.29963588  0.73070546  0.65714662  1.0
  S  S4  1  0.47985500  0.32328022  0.28331147  1.0
  S  S5  1  0.08249499  0.82911322  0.75857927  1.0
