# generated using pymatgen
data_RbLiZnS2
_symmetry_space_group_name_H-M   'P 1'
_cell_length_a   7.88859838
_cell_length_b   8.87562671
_cell_length_c   7.86854408
_cell_angle_alpha   152.68991752
_cell_angle_beta   151.81678524
_cell_angle_gamma   43.98906505
_symmetry_Int_Tables_number   1
_chemical_formula_structural   RbLiZnS2
_chemical_formula_sum   'Rb1 Li1 Zn1 S2'
_cell_volume   114.10217465
_cell_formula_units_Z   1
loop_
 _symmetry_equiv_pos_site_id
 _symmetry_equiv_pos_as_xyz
  1  'x, y, z'
loop_
 _atom_site_type_symbol
 _atom_site_label
 _atom_site_symmetry_multiplicity
 _atom_site_fract_x
 _atom_site_fract_y
 _atom_site_fract_z
 _atom_site_occupancy
  Rb  Rb0  1  0.99634170  0.93478936  0.90164761  1.0
  Li  Li1  1  0.27130851  0.94189755  0.78548731  1.0
  Zn  Zn2  1  0.86592994  0.42330875  0.68791531  1.0
  S  S3  1  0.62483454  0.56260194  0.85526643  1.0
  S  S4  1  0.37527269  0.26902449  0.90694569  1.0
