# generated using pymatgen
data_RbLiS
_symmetry_space_group_name_H-M   'P 1'
_cell_length_a   4.40406754
_cell_length_b   4.40283216
_cell_length_c   7.32397208
_cell_angle_alpha   88.63544926
_cell_angle_beta   91.31207313
_cell_angle_gamma   88.84723554
_symmetry_Int_Tables_number   1
_chemical_formula_structural   RbLiS
_chemical_formula_sum   'Rb2 Li2 S2'
_cell_volume   141.90669364
_cell_formula_units_Z   2
loop_
 _symmetry_equiv_pos_site_id
 _symmetry_equiv_pos_as_xyz
  1  'x, y, z'
loop_
 _atom_site_type_symbol
 _atom_site_label
 _atom_site_symmetry_multiplicity
 _atom_site_fract_x
 _atom_site_fract_y
 _atom_site_fract_z
 _atom_site_occupancy
  Rb  Rb0  1  0.29840508  0.26350079  0.68389534  1.0
  Rb  Rb1  1  0.80854712  0.75366366  0.36427686  1.0
  Li  Li2  1  0.30307382  0.75648647  0.02491039  1.0
  Li  Li3  1  0.80446534  0.25882958  0.02428761  1.0
  S  S4  1  0.30763295  0.25431595  0.20057771  1.0
  S  S5  1  0.79966363  0.76370635  0.84942639  1.0
