# generated using pymatgen
data_RbLiS
_symmetry_space_group_name_H-M   'P 1'
_cell_length_a   4.39979593
_cell_length_b   4.43494665
_cell_length_c   7.37268957
_cell_angle_alpha   90.01616049
_cell_angle_beta   90.40642500
_cell_angle_gamma   89.89374829
_symmetry_Int_Tables_number   1
_chemical_formula_structural   RbLiS
_chemical_formula_sum   'Rb2 Li2 S2'
_cell_volume   143.85838911
_cell_formula_units_Z   2
loop_
 _symmetry_equiv_pos_site_id
 _symmetry_equiv_pos_as_xyz
  1  'x, y, z'
loop_
 _atom_site_type_symbol
 _atom_site_label
 _atom_site_symmetry_multiplicity
 _atom_site_fract_x
 _atom_site_fract_y
 _atom_site_fract_z
 _atom_site_occupancy
  Rb  Rb0  1  0.32268103  0.23908079  0.68515605  1.0
  Rb  Rb1  1  0.83442561  0.73916269  0.36024743  1.0
  Li  Li2  1  0.32836603  0.73889876  0.02238579  1.0
  Li  Li3  1  0.82846598  0.23910682  0.02348165  1.0
  S  S4  1  0.33216158  0.23887707  0.19750237  1.0
  S  S5  1  0.82545685  0.73891008  0.84878016  1.0
