# generated using pymatgen
data_RbLiS
_symmetry_space_group_name_H-M   'P 1'
_cell_length_a   4.43016275
_cell_length_b   4.43203536
_cell_length_c   7.35751698
_cell_angle_alpha   89.88219045
_cell_angle_beta   90.21104476
_cell_angle_gamma   89.89511714
_symmetry_Int_Tables_number   1
_chemical_formula_structural   RbLiS
_chemical_formula_sum   'Rb2 Li2 S2'
_cell_volume   144.46065275
_cell_formula_units_Z   2
loop_
 _symmetry_equiv_pos_site_id
 _symmetry_equiv_pos_as_xyz
  1  'x, y, z'
loop_
 _atom_site_type_symbol
 _atom_site_label
 _atom_site_symmetry_multiplicity
 _atom_site_fract_x
 _atom_site_fract_y
 _atom_site_fract_z
 _atom_site_occupancy
  Rb  Rb0  1  0.20178249  0.27836626  0.66607391  1.0
  Rb  Rb1  1  0.70607875  0.77455561  0.33939893  1.0
  Li  Li2  1  0.20378630  0.77609822  0.00225756  1.0
  Li  Li3  1  0.70456524  0.27625454  0.00316769  1.0
  S  S4  1  0.20444153  0.27531623  0.17700532  1.0
  S  S5  1  0.70210365  0.77742572  0.82836204  1.0
