# generated using pymatgen
data_RbLiS
_symmetry_space_group_name_H-M   'P 1'
_cell_length_a   4.36949753
_cell_length_b   4.45625009
_cell_length_c   7.34927625
_cell_angle_alpha   89.81712309
_cell_angle_beta   88.42992174
_cell_angle_gamma   90.19704538
_symmetry_Int_Tables_number   1
_chemical_formula_structural   RbLiS
_chemical_formula_sum   'Rb2 Li2 S2'
_cell_volume   143.04662959
_cell_formula_units_Z   2
loop_
 _symmetry_equiv_pos_site_id
 _symmetry_equiv_pos_as_xyz
  1  'x, y, z'
loop_
 _atom_site_type_symbol
 _atom_site_label
 _atom_site_symmetry_multiplicity
 _atom_site_fract_x
 _atom_site_fract_y
 _atom_site_fract_z
 _atom_site_occupancy
  Rb  Rb0  1  0.24642132  0.25059966  0.67013412  1.0
  Rb  Rb1  1  0.72898474  0.74726380  0.34772921  1.0
  Li  Li2  1  0.24135277  0.75088842  0.00669865  1.0
  Li  Li3  1  0.73900102  0.24970963  0.01005392  1.0
  S  S4  1  0.23275288  0.24966119  0.18324125  1.0
  S  S5  1  0.74525907  0.75056118  0.83345861  1.0
