# generated using pymatgen
data_RbNdO2
_symmetry_space_group_name_H-M   'P 1'
_cell_length_a   5.13368591
_cell_length_b   5.11101206
_cell_length_c   6.69173189
_cell_angle_alpha   49.28369257
_cell_angle_beta   49.01512572
_cell_angle_gamma   39.35084760
_symmetry_Int_Tables_number   1
_chemical_formula_structural   RbNdO2
_chemical_formula_sum   'Rb1 Nd1 O2'
_cell_volume   80.08315014
_cell_formula_units_Z   1
loop_
 _symmetry_equiv_pos_site_id
 _symmetry_equiv_pos_as_xyz
  1  'x, y, z'
loop_
 _atom_site_type_symbol
 _atom_site_label
 _atom_site_symmetry_multiplicity
 _atom_site_fract_x
 _atom_site_fract_y
 _atom_site_fract_z
 _atom_site_occupancy
  Rb  Rb0  1  0.97992266  0.02008412  0.06798107  1.0
  Nd  Nd1  1  0.48066213  0.51947353  0.55168022  1.0
  O  O2  1  0.77952636  0.81581792  0.64633165  1.0
  O  O3  1  0.18432581  0.22062172  0.24031717  1.0
