# generated using pymatgen
data_RbNO3
_symmetry_space_group_name_H-M   'P 1'
_cell_length_a   5.44536517
_cell_length_b   4.45793787
_cell_length_c   4.07707944
_cell_angle_alpha   71.16761918
_cell_angle_beta   70.98165604
_cell_angle_gamma   75.32850546
_symmetry_Int_Tables_number   1
_chemical_formula_structural   RbNO3
_chemical_formula_sum   'Rb1 N1 O3'
_cell_volume   87.33885906
_cell_formula_units_Z   1
loop_
 _symmetry_equiv_pos_site_id
 _symmetry_equiv_pos_as_xyz
  1  'x, y, z'
loop_
 _atom_site_type_symbol
 _atom_site_label
 _atom_site_symmetry_multiplicity
 _atom_site_fract_x
 _atom_site_fract_y
 _atom_site_fract_z
 _atom_site_occupancy
  Rb  Rb0  1  0.53440894  0.45694854  0.40006375  1.0
  N  N1  1  0.05797691  0.01549458  0.95346622  1.0
  O  O2  1  0.30073071  0.89336209  0.85173139  1.0
  O  O3  1  0.97019122  0.28266382  0.76274671  1.0
  O  O4  1  0.91176950  0.87296152  0.24264440  1.0
