# generated using pymatgen
data_RbOsO3
_symmetry_space_group_name_H-M   'P 1'
_cell_length_a   5.34150982
_cell_length_b   5.49808741
_cell_length_c   7.17418909
_cell_angle_alpha   61.36859512
_cell_angle_beta   69.72315216
_cell_angle_gamma   53.47352982
_symmetry_Int_Tables_number   1
_chemical_formula_structural   RbOsO3
_chemical_formula_sum   'Rb2 Os2 O6'
_cell_volume   148.04217184
_cell_formula_units_Z   2
loop_
 _symmetry_equiv_pos_site_id
 _symmetry_equiv_pos_as_xyz
  1  'x, y, z'
loop_
 _atom_site_type_symbol
 _atom_site_label
 _atom_site_symmetry_multiplicity
 _atom_site_fract_x
 _atom_site_fract_y
 _atom_site_fract_z
 _atom_site_occupancy
  Rb  Rb1  1  0.81009591  0.83218741  0.44465548  1.0
  Rb  Rb2  1  0.17175519  0.00000000  0.69806075  1.0
  Os  Os1  1  0.76399034  0.66221231  0.00000000  1.0
  Os  Os2  1  0.29473358  0.32631755  0.93294263  1.0
  O  O1  1  0.71237290  0.64023417  0.73249936  1.0
  O  O2  1  0.00000000  0.63523358  0.79732305  1.0
  O  O3  1  0.80717105  0.00000000  0.85869765  1.0
  O  O4  1  0.82096469  0.44506446  0.42588329  1.0
  O  O5  1  0.30677688  0.90375400  0.10968560  1.0
  O  O6  1  0.90269148  0.64674729  0.21099953  1.0
