# generated using pymatgen
data_RbSiCl3
_symmetry_space_group_name_H-M   'P 1'
_cell_length_a   6.22770262
_cell_length_b   8.37438107
_cell_length_c   6.60700178
_cell_angle_alpha   60.74012375
_cell_angle_beta   64.64392090
_cell_angle_gamma   50.31961060
_symmetry_Int_Tables_number   1
_chemical_formula_structural   RbSiCl3
_chemical_formula_sum   'Rb2 Si2 Cl6'
_cell_volume   227.86792385
_cell_formula_units_Z   2
loop_
 _symmetry_equiv_pos_site_id
 _symmetry_equiv_pos_as_xyz
  1  'x, y, z'
loop_
 _atom_site_type_symbol
 _atom_site_label
 _atom_site_symmetry_multiplicity
 _atom_site_fract_x
 _atom_site_fract_y
 _atom_site_fract_z
 _atom_site_occupancy
  Rb  Rb1  1  0.90533084  0.78089547  0.33907986  1.0
  Rb  Rb2  1  0.20976993  0.22294906  0.64097220  1.0
  Si  Si1  1  0.66308790  0.53929096  0.00000000  1.0
  Si  Si2  1  0.27649364  0.38252768  0.94769669  1.0
  Cl  Cl1  1  0.43259811  0.77821887  0.65075684  1.0
  Cl  Cl2  1  0.18449107  0.59216565  0.88988787  1.0
  Cl  Cl3  1  0.57603568  0.00000000  0.68002319  1.0
  Cl  Cl4  1  0.77579474  0.36174259  0.25785610  1.0
  Cl  Cl5  1  0.24568719  0.91026497  0.37622201  1.0
  Cl  Cl6  1  0.92237687  0.55832130  0.30400503  1.0
