# generated using pymatgen
data_RbSmSe2
_symmetry_space_group_name_H-M   'P 1'
_cell_length_a   8.32054901
_cell_length_b   10.22688389
_cell_length_c   10.38641262
_cell_angle_alpha   27.85262108
_cell_angle_beta   31.74949646
_cell_angle_gamma   23.34830093
_symmetry_Int_Tables_number   1
_chemical_formula_structural   RbSmSe2
_chemical_formula_sum   'Rb1 Sm1 Se2'
_cell_volume   160.05055973
_cell_formula_units_Z   1
loop_
 _symmetry_equiv_pos_site_id
 _symmetry_equiv_pos_as_xyz
  1  'x, y, z'
loop_
 _atom_site_type_symbol
 _atom_site_label
 _atom_site_symmetry_multiplicity
 _atom_site_fract_x
 _atom_site_fract_y
 _atom_site_fract_z
 _atom_site_occupancy
  Rb  Rb1  1  0.00000000  0.00000000  0.00000000  1.0
  Sm  Sm1  1  0.48948631  0.54982680  0.50460470  1.0
  Se  Se1  1  0.17937115  0.17993927  0.23478523  1.0
  Se  Se2  1  0.86718905  0.77383024  0.83224750  1.0
