# generated using pymatgen
data_RbSrCl3
_symmetry_space_group_name_H-M   'P 1'
_cell_length_a   6.99227047
_cell_length_b   7.28529549
_cell_length_c   9.70876312
_cell_angle_alpha   52.26269531
_cell_angle_beta   57.36115646
_cell_angle_gamma   62.18379211
_symmetry_Int_Tables_number   1
_chemical_formula_structural   RbSrCl3
_chemical_formula_sum   'Rb2 Sr2 Cl6'
_cell_volume   322.36006329
_cell_formula_units_Z   2
loop_
 _symmetry_equiv_pos_site_id
 _symmetry_equiv_pos_as_xyz
  1  'x, y, z'
loop_
 _atom_site_type_symbol
 _atom_site_label
 _atom_site_symmetry_multiplicity
 _atom_site_fract_x
 _atom_site_fract_y
 _atom_site_fract_z
 _atom_site_occupancy
  Rb  Rb1  1  0.84995085  0.81046849  0.41311842  1.0
  Rb  Rb2  1  0.29941884  0.12557077  0.55309987  1.0
  Sr  Sr1  1  0.55765718  0.71164155  0.00000000  1.0
  Sr  Sr2  1  0.34253114  0.27280396  0.91276872  1.0
  Cl  Cl1  1  0.51890123  0.57767820  0.85828137  1.0
  Cl  Cl2  1  0.00000000  0.60104114  0.75284076  1.0
  Cl  Cl3  1  0.80730790  0.11718935  0.76256394  1.0
  Cl  Cl4  1  0.63896686  0.15630019  0.18285349  1.0
  Cl  Cl5  1  0.27603298  0.90395796  0.16760173  1.0
  Cl  Cl6  1  0.92806387  0.35995141  0.31159794  1.0
