# generated using pymatgen
data_RbTiS2
_symmetry_space_group_name_H-M   'P 1'
_cell_length_a   7.74941301
_cell_length_b   5.76083422
_cell_length_c   6.77978849
_cell_angle_alpha   40.95656967
_cell_angle_beta   39.84762573
_cell_angle_gamma   36.16421127
_symmetry_Int_Tables_number   1
_chemical_formula_structural   RbTiS2
_chemical_formula_sum   'Rb1 Ti1 S2'
_cell_volume   106.85476329
_cell_formula_units_Z   1
loop_
 _symmetry_equiv_pos_site_id
 _symmetry_equiv_pos_as_xyz
  1  'x, y, z'
loop_
 _atom_site_type_symbol
 _atom_site_label
 _atom_site_symmetry_multiplicity
 _atom_site_fract_x
 _atom_site_fract_y
 _atom_site_fract_z
 _atom_site_occupancy
  Rb  Rb1  1  0.87093800  0.86867499  0.91542959  1.0
  Ti  Ti1  1  0.96955740  0.92670530  0.88734460  1.0
  S  S1  1  0.47227070  0.61908644  0.64047706  1.0
  S  S2  1  0.54309732  0.55097353  0.54965013  1.0
