# generated using pymatgen
data_RbUO3
_symmetry_space_group_name_H-M   'P 1'
_cell_length_a   4.21257973
_cell_length_b   3.83566642
_cell_length_c   4.53754473
_cell_angle_alpha   92.21594238
_cell_angle_beta   86.08107758
_cell_angle_gamma   90.26634979
_symmetry_Int_Tables_number   1
_chemical_formula_structural   RbUO3
_chemical_formula_sum   'Rb1 U1 O3'
_cell_volume   73.09159559
_cell_formula_units_Z   1
loop_
 _symmetry_equiv_pos_site_id
 _symmetry_equiv_pos_as_xyz
  1  'x, y, z'
loop_
 _atom_site_type_symbol
 _atom_site_label
 _atom_site_symmetry_multiplicity
 _atom_site_fract_x
 _atom_site_fract_y
 _atom_site_fract_z
 _atom_site_occupancy
  Rb  Rb1  1  0.45831853  0.25966150  0.41310972  1.0
  U  U1  1  0.00000000  0.00000000  0.00000000  1.0
  O  O1  1  0.00000000  0.64626259  0.00000000  1.0
  O  O2  1  0.00000000  0.00000000  0.43478113  1.0
  O  O3  1  0.55979419  0.00000000  0.00000000  1.0
