# generated using pymatgen
data_RbVF6
_symmetry_space_group_name_H-M   'P 1'
_cell_length_a   5.98014519
_cell_length_b   4.98740428
_cell_length_c   4.97993717
_cell_angle_alpha   74.30439476
_cell_angle_beta   77.21142330
_cell_angle_gamma   81.69366877
_symmetry_Int_Tables_number   1
_chemical_formula_structural   RbVF6
_chemical_formula_sum   'Rb1 V1 F6'
_cell_volume   138.87619251
_cell_formula_units_Z   1
loop_
 _symmetry_equiv_pos_site_id
 _symmetry_equiv_pos_as_xyz
  1  'x, y, z'
loop_
 _atom_site_type_symbol
 _atom_site_label
 _atom_site_symmetry_multiplicity
 _atom_site_fract_x
 _atom_site_fract_y
 _atom_site_fract_z
 _atom_site_occupancy
  Rb  Rb0  1  0.00526420  0.88947402  0.10256687  1.0
  V  V1  1  0.54425679  0.46410187  0.53202229  1.0
  F  F2  1  0.54655899  0.77576307  0.62202979  1.0
  F  F3  1  0.41801657  0.64732865  0.22935752  1.0
  F  F4  1  0.31829560  0.25442842  0.70075832  1.0
  F  F5  1  0.78093562  0.37441065  0.27335150  1.0
  F  F6  1  0.01643867  0.68448298  0.66166696  1.0
  F  F7  1  0.71331485  0.27075482  0.78849256  1.0
