# generated using pymatgen
data_Rh3Se8
_symmetry_space_group_name_H-M   'P 1'
_cell_length_a   6.82791090
_cell_length_b   5.04936171
_cell_length_c   5.26636744
_cell_angle_alpha   97.25816345
_cell_angle_beta   92.12126160
_cell_angle_gamma   93.21266937
_symmetry_Int_Tables_number   1
_chemical_formula_structural   Rh3Se8
_chemical_formula_sum   'Rh3 Se8'
_cell_volume   179.65012797
_cell_formula_units_Z   1
loop_
 _symmetry_equiv_pos_site_id
 _symmetry_equiv_pos_as_xyz
  1  'x, y, z'
loop_
 _atom_site_type_symbol
 _atom_site_label
 _atom_site_symmetry_multiplicity
 _atom_site_fract_x
 _atom_site_fract_y
 _atom_site_fract_z
 _atom_site_occupancy
  Rh  Rh1  1  0.40874112  0.00000000  0.42655721  1.0
  Rh  Rh2  1  0.00000000  0.39707428  0.45701844  1.0
  Rh  Rh3  1  0.37691063  0.37954980  0.00000000  1.0
  Se  Se1  1  0.86345410  0.39963382  0.00000000  1.0
  Se  Se2  1  0.52160591  0.12553209  0.89937592  1.0
  Se  Se3  1  0.15976027  0.83176529  0.44705555  1.0
  Se  Se4  1  0.38233709  0.39397660  0.37023836  1.0
  Se  Se5  1  0.76827955  0.75130343  0.59774417  1.0
  Se  Se6  1  0.78085399  0.00000000  0.73828524  1.0
  Se  Se7  1  0.50121510  0.75354534  0.00000000  1.0
  Se  Se8  1  0.00000000  0.59180224  0.91831720  1.0
