# generated using pymatgen
data_Rh4Se7
_symmetry_space_group_name_H-M   'P 1'
_cell_length_a   5.68988466
_cell_length_b   6.69904518
_cell_length_c   8.20438766
_cell_angle_alpha   77.38332367
_cell_angle_beta   94.55387115
_cell_angle_gamma   86.57806396
_symmetry_Int_Tables_number   1
_chemical_formula_structural   Rh4Se7
_chemical_formula_sum   'Rh4 Se7'
_cell_volume   303.25497791
_cell_formula_units_Z   1
loop_
 _symmetry_equiv_pos_site_id
 _symmetry_equiv_pos_as_xyz
  1  'x, y, z'
loop_
 _atom_site_type_symbol
 _atom_site_label
 _atom_site_symmetry_multiplicity
 _atom_site_fract_x
 _atom_site_fract_y
 _atom_site_fract_z
 _atom_site_occupancy
  Rh  Rh1  1  0.44381490  0.00000000  0.63070548  1.0
  Rh  Rh2  1  0.00000000  0.43680784  0.50694329  1.0
  Rh  Rh3  1  0.39911029  0.74023247  0.00000000  1.0
  Rh  Rh4  1  0.92225444  0.21553171  0.00000000  1.0
  Se  Se1  1  0.36156923  0.16357797  0.91517341  1.0
  Se  Se2  1  0.18315604  0.89027321  0.64330447  1.0
  Se  Se3  1  0.35643455  0.58371085  0.30620873  1.0
  Se  Se4  1  0.71924853  0.53778946  0.70075017  1.0
  Se  Se5  1  0.87123024  0.14014179  0.76497567  1.0
  Se  Se6  1  0.75679696  0.96622318  0.17509504  1.0
  Se  Se7  1  0.31213078  0.46680388  0.93088996  1.0
