# generated using pymatgen
data_RhSe3
_symmetry_space_group_name_H-M   'P 1'
_cell_length_a   4.63614511
_cell_length_b   6.25035286
_cell_length_c   5.41609907
_cell_angle_alpha   87.98336029
_cell_angle_beta   95.99921417
_cell_angle_gamma   78.27775574
_symmetry_Int_Tables_number   1
_chemical_formula_structural   RhSe3
_chemical_formula_sum   'Rh3 Se9'
_cell_volume   152.57361243
_cell_formula_units_Z   3
loop_
 _symmetry_equiv_pos_site_id
 _symmetry_equiv_pos_as_xyz
  1  'x, y, z'
loop_
 _atom_site_type_symbol
 _atom_site_label
 _atom_site_symmetry_multiplicity
 _atom_site_fract_x
 _atom_site_fract_y
 _atom_site_fract_z
 _atom_site_occupancy
  Rh  Rh1  1  0.22582978  0.00000000  0.74629188  1.0
  Rh  Rh2  1  0.00000000  0.53555739  0.58859366  1.0
  Rh  Rh3  1  0.39399689  0.44135731  0.00000000  1.0
  Se  Se1  1  0.89030862  0.44575292  0.10033956  1.0
  Se  Se2  1  0.40547252  0.19248825  0.77737403  1.0
  Se  Se3  1  0.00000000  0.92605013  0.32776260  1.0
  Se  Se4  1  0.52810133  0.21230856  0.39364630  1.0
  Se  Se5  1  0.37103879  0.65922576  0.47596103  1.0
  Se  Se6  1  0.89035332  0.10201550  0.64865041  1.0
  Se  Se7  1  0.64103633  0.75247520  0.00000000  1.0
  Se  Se8  1  0.27770478  0.71490204  0.70544213  1.0
  Se  Se9  1  0.00000000  0.00000000  0.00000000  1.0
