# generated using pymatgen
data_SbOsS
_symmetry_space_group_name_H-M   'P 1'
_cell_length_a   8.01099968
_cell_length_b   7.51820278
_cell_length_c   9.51488686
_cell_angle_alpha   123.13658905
_cell_angle_beta   93.27107239
_cell_angle_gamma   94.40399933
_symmetry_Int_Tables_number   1
_chemical_formula_structural   SbOsS
_chemical_formula_sum   'Sb4 Os4 S4'
_cell_volume   475.07302062
_cell_formula_units_Z   4
loop_
 _symmetry_equiv_pos_site_id
 _symmetry_equiv_pos_as_xyz
  1  'x, y, z'
loop_
 _atom_site_type_symbol
 _atom_site_label
 _atom_site_symmetry_multiplicity
 _atom_site_fract_x
 _atom_site_fract_y
 _atom_site_fract_z
 _atom_site_occupancy
  Sb  Sb1  1  0.00000000  0.83000803  0.00000000  1.0
  Sb  Sb2  1  0.69003510  0.10648605  0.35101354  1.0
  Sb  Sb3  1  0.78813195  0.15620768  0.85940999  1.0
  Sb  Sb4  1  0.30451408  0.84037763  0.64292383  1.0
  Os  Os1  1  0.30735034  0.77922416  0.23113298  1.0
  Os  Os2  1  0.00000000  0.14684802  0.18469393  1.0
  Os  Os3  1  0.49500215  0.41478390  0.81331211  1.0
  Os  Os4  1  0.92456043  0.56163812  0.64652139  1.0
  S  S1  1  0.83379078  0.82720566  0.49833059  1.0
  S  S2  1  0.37934959  0.25007609  0.12608044  1.0
  S  S3  1  0.19600144  0.36823535  0.76613063  1.0
  S  S4  1  0.22474641  0.60426205  0.79486561  1.0
