# generated using pymatgen
data_ScCdAg2
_symmetry_space_group_name_H-M   'P 1'
_cell_length_a   5.98920727
_cell_length_b   4.46688938
_cell_length_c   5.84505224
_cell_angle_alpha   63.53405380
_cell_angle_beta   68.53778839
_cell_angle_gamma   71.55970764
_symmetry_Int_Tables_number   1
_chemical_formula_structural   ScCdAg2
_chemical_formula_sum   'Sc1 Cd1 Ag2'
_cell_volume   128.05557233
_cell_formula_units_Z   1
loop_
 _symmetry_equiv_pos_site_id
 _symmetry_equiv_pos_as_xyz
  1  'x, y, z'
loop_
 _atom_site_type_symbol
 _atom_site_label
 _atom_site_symmetry_multiplicity
 _atom_site_fract_x
 _atom_site_fract_y
 _atom_site_fract_z
 _atom_site_occupancy
  Sc  Sc1  1  0.81510812  0.62794948  0.71974534  1.0
  Cd  Cd1  1  0.15881917  0.28736627  0.28868109  1.0
  Ag  Ag1  1  0.00000000  0.00000000  0.00000000  1.0
  Ag  Ag2  1  0.57651579  0.54567999  0.57455856  1.0
