# generated using pymatgen
data_ScIn
_symmetry_space_group_name_H-M   'P 1'
_cell_length_a   3.25312829
_cell_length_b   3.53286505
_cell_length_c   6.55742884
_cell_angle_alpha   98.67324829
_cell_angle_beta   99.21138000
_cell_angle_gamma   85.12822723
_symmetry_Int_Tables_number   1
_chemical_formula_structural   ScIn
_chemical_formula_sum   'Sc1 In1'
_cell_volume   73.39824232
_cell_formula_units_Z   1
loop_
 _symmetry_equiv_pos_site_id
 _symmetry_equiv_pos_as_xyz
  1  'x, y, z'
loop_
 _atom_site_type_symbol
 _atom_site_label
 _atom_site_symmetry_multiplicity
 _atom_site_fract_x
 _atom_site_fract_y
 _atom_site_fract_z
 _atom_site_occupancy
  Sc  Sc1  1  0.00000000  0.00000000  0.00000000  1.0
  In  In1  1  0.55398619  0.41903448  0.51983494  1.0
