# generated using pymatgen
data_ScN
_symmetry_space_group_name_H-M   'P 1'
_cell_length_a   3.30678129
_cell_length_b   5.89555311
_cell_length_c   1.84165967
_cell_angle_alpha   98.10952759
_cell_angle_beta   99.02494049
_cell_angle_gamma   116.42092133
_symmetry_Int_Tables_number   1
_chemical_formula_structural   ScN
_chemical_formula_sum   'Sc3 N3'
_cell_volume   30.83981239
_cell_formula_units_Z   3
loop_
 _symmetry_equiv_pos_site_id
 _symmetry_equiv_pos_as_xyz
  1  'x, y, z'
loop_
 _atom_site_type_symbol
 _atom_site_label
 _atom_site_symmetry_multiplicity
 _atom_site_fract_x
 _atom_site_fract_y
 _atom_site_fract_z
 _atom_site_occupancy
  Sc  Sc1  1  0.00000000  0.00000000  0.00000000  1.0
  Sc  Sc2  1  0.41065162  0.59065104  0.50233907  1.0
  Sc  Sc3  1  0.41066596  0.48923126  0.36969510  1.0
  N  N1  1  0.13926509  0.00000000  0.00000000  1.0
  N  N2  1  0.35400262  0.21434343  0.00000000  1.0
  N  N3  1  0.00000000  0.10571319  0.00000000  1.0
