# generated using pymatgen
data_ScPaO4
_symmetry_space_group_name_H-M   'P 1'
_cell_length_a   10.70484370
_cell_length_b   23.05200749
_cell_length_c   14.11998639
_cell_angle_alpha   156.75293110
_cell_angle_beta   148.32397687
_cell_angle_gamma   40.83501753
_symmetry_Int_Tables_number   1
_chemical_formula_structural   ScPaO4
_chemical_formula_sum   'Sc2 Pa2 O8'
_cell_volume   716.75575754
_cell_formula_units_Z   2
loop_
 _symmetry_equiv_pos_site_id
 _symmetry_equiv_pos_as_xyz
  1  'x, y, z'
loop_
 _atom_site_type_symbol
 _atom_site_label
 _atom_site_symmetry_multiplicity
 _atom_site_fract_x
 _atom_site_fract_y
 _atom_site_fract_z
 _atom_site_occupancy
  Sc  Sc0  1  0.02949336  0.99943480  0.03132000  1.0
  Sc  Sc1  1  0.79772625  0.44876527  0.47264967  1.0
  Pa  Pa2  1  0.51253492  0.41348704  0.96570169  1.0
  Pa  Pa3  1  0.77572860  0.34221638  0.62338428  1.0
  O  O4  1  0.12701529  0.81731624  0.83646789  1.0
  O  O5  1  0.76008119  0.59755300  0.21356068  1.0
  O  O6  1  0.48252978  0.24865633  0.57023294  1.0
  O  O7  1  0.86912461  0.62247015  0.65516640  1.0
  O  O8  1  0.85024451  0.46411496  0.88519787  1.0
  O  O9  1  0.57903783  0.83626962  0.57433172  1.0
  O  O10  1  0.08008983  0.66099225  0.96744153  1.0
  O  O11  1  0.47349953  0.84564032  0.95666002  1.0
