# generated using pymatgen
data_Si3Ir5
_symmetry_space_group_name_H-M   'P 1'
_cell_length_a   3.99482250
_cell_length_b   5.29728413
_cell_length_c   3.75283885
_cell_angle_alpha   124.60636902
_cell_angle_beta   135.98265076
_cell_angle_gamma   81.51204681
_symmetry_Int_Tables_number   1
_chemical_formula_structural   Si3Ir5
_chemical_formula_sum   'Si3 Ir5'
_cell_volume   40.42312494
_cell_formula_units_Z   1
loop_
 _symmetry_equiv_pos_site_id
 _symmetry_equiv_pos_as_xyz
  1  'x, y, z'
loop_
 _atom_site_type_symbol
 _atom_site_label
 _atom_site_symmetry_multiplicity
 _atom_site_fract_x
 _atom_site_fract_y
 _atom_site_fract_z
 _atom_site_occupancy
  Si  Si1  1  0.27729622  0.85652566  0.53015596  1.0
  Si  Si2  1  0.69547796  0.29956257  0.31008708  1.0
  Si  Si3  1  0.15780455  0.29562238  0.80324125  1.0
  Ir  Ir1  1  0.59155488  0.86339939  0.49489880  1.0
  Ir  Ir2  1  0.19190109  0.79152828  0.00000000  1.0
  Ir  Ir3  1  0.37788656  0.00000000  0.00000000  1.0
  Ir  Ir4  1  0.81409228  0.81011486  0.00000000  1.0
  Ir  Ir5  1  0.79750395  0.43181178  0.00000000  1.0
