# generated using pymatgen
data_SiTc2W
_symmetry_space_group_name_H-M   'P 1'
_cell_length_a   2.23844624
_cell_length_b   2.61836815
_cell_length_c   2.72526288
_cell_angle_alpha   62.00846481
_cell_angle_beta   74.56508636
_cell_angle_gamma   61.49039078
_symmetry_Int_Tables_number   1
_chemical_formula_structural   SiTc2W
_chemical_formula_sum   'Si1 Tc2 W1'
_cell_volume   12.37578765
_cell_formula_units_Z   1
loop_
 _symmetry_equiv_pos_site_id
 _symmetry_equiv_pos_as_xyz
  1  'x, y, z'
loop_
 _atom_site_type_symbol
 _atom_site_label
 _atom_site_symmetry_multiplicity
 _atom_site_fract_x
 _atom_site_fract_y
 _atom_site_fract_z
 _atom_site_occupancy
  Si  Si1  1  0.82089210  0.70245683  0.63202465  1.0
  Tc  Tc1  1  0.18173000  0.24846032  0.25047427  1.0
  Tc  Tc2  1  0.76183063  0.78491920  0.75846684  1.0
  W  W1  1  0.00000000  0.00000000  0.00000000  1.0
