# generated using pymatgen
data_Sm2BiO2
_symmetry_space_group_name_H-M   'P 1'
_cell_length_a   6.86789227
_cell_length_b   7.21466160
_cell_length_c   6.78101683
_cell_angle_alpha   143.09852600
_cell_angle_beta   140.71945190
_cell_angle_gamma   45.50411606
_symmetry_Int_Tables_number   1
_chemical_formula_structural   Sm2BiO2
_chemical_formula_sum   'Sm2 Bi1 O2'
_cell_volume   124.73165269
_cell_formula_units_Z   1
loop_
 _symmetry_equiv_pos_site_id
 _symmetry_equiv_pos_as_xyz
  1  'x, y, z'
loop_
 _atom_site_type_symbol
 _atom_site_label
 _atom_site_symmetry_multiplicity
 _atom_site_fract_x
 _atom_site_fract_y
 _atom_site_fract_z
 _atom_site_occupancy
  Sm  Sm1  1  0.64857882  0.63502580  0.00000000  1.0
  Sm  Sm2  1  0.43765423  0.34017640  0.00000000  1.0
  Bi  Bi1  1  0.00000000  0.00000000  0.00000000  1.0
  O  O1  1  0.75507891  0.27510959  0.59908116  1.0
  O  O2  1  0.22663096  0.76079512  0.67918652  1.0
