# generated using pymatgen
data_Sm3I
_symmetry_space_group_name_H-M   'P 1'
_cell_length_a   6.76935625
_cell_length_b   5.86756134
_cell_length_c   4.78674364
_cell_angle_alpha   95.02548218
_cell_angle_beta   91.28569031
_cell_angle_gamma   92.26715088
_symmetry_Int_Tables_number   1
_chemical_formula_structural   Sm3I
_chemical_formula_sum   'Sm3 I1'
_cell_volume   189.18437983
_cell_formula_units_Z   1
loop_
 _symmetry_equiv_pos_site_id
 _symmetry_equiv_pos_as_xyz
  1  'x, y, z'
loop_
 _atom_site_type_symbol
 _atom_site_label
 _atom_site_symmetry_multiplicity
 _atom_site_fract_x
 _atom_site_fract_y
 _atom_site_fract_z
 _atom_site_occupancy
  Sm  Sm1  1  0.00000000  0.49447814  0.54764056  1.0
  Sm  Sm2  1  0.46906081  0.00000000  0.44760141  1.0
  Sm  Sm3  1  0.47676939  0.50848490  0.00000000  1.0
  I  I1  1  0.00000000  0.00000000  0.00000000  1.0
