# generated using pymatgen
data_SmAl4Ni
_symmetry_space_group_name_H-M   'P 1'
_cell_length_a   4.14617467
_cell_length_b   8.53153117
_cell_length_c   11.07301328
_cell_angle_alpha   94.95314479
_cell_angle_beta   111.87985682
_cell_angle_gamma   95.93242515
_symmetry_Int_Tables_number   1
_chemical_formula_structural   SmAl4Ni
_chemical_formula_sum   'Sm2 Al8 Ni2'
_cell_volume   358.20410620
_cell_formula_units_Z   2
loop_
 _symmetry_equiv_pos_site_id
 _symmetry_equiv_pos_as_xyz
  1  'x, y, z'
loop_
 _atom_site_type_symbol
 _atom_site_label
 _atom_site_symmetry_multiplicity
 _atom_site_fract_x
 _atom_site_fract_y
 _atom_site_fract_z
 _atom_site_occupancy
  Sm  Sm0  1  0.39380694  0.81507390  0.74362029  1.0
  Sm  Sm1  1  0.57834015  0.17682629  0.18203104  1.0
  Al  Al2  1  0.98796930  0.36382468  0.99300663  1.0
  Al  Al3  1  0.92725828  0.97882265  0.97928782  1.0
  Al  Al4  1  0.69827350  0.69706931  0.15013144  1.0
  Al  Al5  1  0.62102118  0.19715533  0.78245155  1.0
  Al  Al6  1  0.82944618  0.01073345  0.62876563  1.0
  Al  Al7  1  0.14724484  0.97396872  0.41674306  1.0
  Al  Al8  1  0.23117271  0.54777516  0.20542694  1.0
  Al  Al9  1  0.81654892  0.42674836  0.58623329  1.0
  Ni  Ni10  1  0.55086257  0.81917461  0.30982869  1.0
  Ni  Ni11  1  0.10904423  0.20766633  0.60514890  1.0
