# generated using pymatgen
data_SmHg2H
_symmetry_space_group_name_H-M   'P 1'
_cell_length_a   5.51612282
_cell_length_b   5.56005001
_cell_length_c   5.07061052
_cell_angle_alpha   58.50740051
_cell_angle_beta   57.38994598
_cell_angle_gamma   63.09912872
_symmetry_Int_Tables_number   1
_chemical_formula_structural   SmHg2H
_chemical_formula_sum   'Sm1 Hg2 H1'
_cell_volume   108.49551816
_cell_formula_units_Z   1
loop_
 _symmetry_equiv_pos_site_id
 _symmetry_equiv_pos_as_xyz
  1  'x, y, z'
loop_
 _atom_site_type_symbol
 _atom_site_label
 _atom_site_symmetry_multiplicity
 _atom_site_fract_x
 _atom_site_fract_y
 _atom_site_fract_z
 _atom_site_occupancy
  Sm  Sm1  1  0.84573597  0.83772594  0.76031828  1.0
  Hg  Hg1  1  0.00000000  0.00000000  0.00000000  1.0
  Hg  Hg2  1  0.36134344  0.42824844  0.46518093  1.0
  H  H1  1  0.10592490  0.27848464  0.19347560  1.0
