# generated using pymatgen
data_SmHoHg2
_symmetry_space_group_name_H-M   'P 1'
_cell_length_a   5.41091681
_cell_length_b   6.56189871
_cell_length_c   5.67906666
_cell_angle_alpha   61.58726883
_cell_angle_beta   65.09714508
_cell_angle_gamma   56.60857391
_symmetry_Int_Tables_number   1
_chemical_formula_structural   SmHoHg2
_chemical_formula_sum   'Sm1 Ho1 Hg2'
_cell_volume   144.55401878
_cell_formula_units_Z   1
loop_
 _symmetry_equiv_pos_site_id
 _symmetry_equiv_pos_as_xyz
  1  'x, y, z'
loop_
 _atom_site_type_symbol
 _atom_site_label
 _atom_site_symmetry_multiplicity
 _atom_site_fract_x
 _atom_site_fract_y
 _atom_site_fract_z
 _atom_site_occupancy
  Sm  Sm1  1  0.78076667  0.82386720  0.74556041  1.0
  Ho  Ho1  1  0.33894348  0.22366753  0.15333450  1.0
  Hg  Hg1  1  0.00000000  0.00000000  0.00000000  1.0
  Hg  Hg2  1  0.32842484  0.39548448  0.42463666  1.0
