# generated using pymatgen
data_SmSe
_symmetry_space_group_name_H-M   'P 1'
_cell_length_a   5.11170387
_cell_length_b   4.32919931
_cell_length_c   4.75472307
_cell_angle_alpha   63.87448502
_cell_angle_beta   81.79949188
_cell_angle_gamma   58.96180344
_symmetry_Int_Tables_number   1
_chemical_formula_structural   SmSe
_chemical_formula_sum   'Sm1 Se1'
_cell_volume   80.45534785
_cell_formula_units_Z   1
loop_
 _symmetry_equiv_pos_site_id
 _symmetry_equiv_pos_as_xyz
  1  'x, y, z'
loop_
 _atom_site_type_symbol
 _atom_site_label
 _atom_site_symmetry_multiplicity
 _atom_site_fract_x
 _atom_site_fract_y
 _atom_site_fract_z
 _atom_site_occupancy
  Sm  Sm1  1  0.40146589  0.53048223  0.41070339  1.0
  Se  Se1  1  0.00000000  0.00000000  0.00000000  1.0
