# generated using pymatgen
data_SO2
_symmetry_space_group_name_H-M   'P 1'
_cell_length_a   3.35859400
_cell_length_b   5.29300666
_cell_length_c   5.81535058
_cell_angle_alpha   99.81330874
_cell_angle_beta   87.15749496
_cell_angle_gamma   92.83800748
_symmetry_Int_Tables_number   1
_chemical_formula_structural   SO2
_chemical_formula_sum   'S2 O4'
_cell_volume   101.65329690
_cell_formula_units_Z   2
loop_
 _symmetry_equiv_pos_site_id
 _symmetry_equiv_pos_as_xyz
  1  'x, y, z'
loop_
 _atom_site_type_symbol
 _atom_site_label
 _atom_site_symmetry_multiplicity
 _atom_site_fract_x
 _atom_site_fract_y
 _atom_site_fract_z
 _atom_site_occupancy
  S  S0  1  0.52543082  0.61106102  0.75249915  1.0
  S  S1  1  0.01558188  0.00536382  0.31420658  1.0
  O  O2  1  0.29682891  0.52874685  0.94669022  1.0
  O  O3  1  0.82100935  0.07738253  0.54325048  1.0
  O  O4  1  0.34575333  0.55875030  0.52591702  1.0
  O  O5  1  0.82908246  0.08115895  0.11821545  1.0
