# generated using pymatgen
data_Sr(PPd)2
_symmetry_space_group_name_H-M   'P 1'
_cell_length_a   4.16429901
_cell_length_b   5.26996756
_cell_length_c   5.67404699
_cell_angle_alpha   113.82373810
_cell_angle_beta   117.20808411
_cell_angle_gamma   89.39505768
_symmetry_Int_Tables_number   1
_chemical_formula_structural   Sr(PPd)2
_chemical_formula_sum   'Sr1 P2 Pd2'
_cell_volume   98.95939457
_cell_formula_units_Z   1
loop_
 _symmetry_equiv_pos_site_id
 _symmetry_equiv_pos_as_xyz
  1  'x, y, z'
loop_
 _atom_site_type_symbol
 _atom_site_label
 _atom_site_symmetry_multiplicity
 _atom_site_fract_x
 _atom_site_fract_y
 _atom_site_fract_z
 _atom_site_occupancy
  Sr  Sr1  1  0.00000000  0.00000000  0.00000000  1.0
  P  P1  1  0.50887221  0.42265043  0.28183904  1.0
  P  P2  1  0.31752723  0.40272769  0.80431390  1.0
  Pd  Pd1  1  0.19659677  0.80327880  0.37804219  1.0
  Pd  Pd2  1  0.77690232  0.28417546  0.58205312  1.0
