# generated using pymatgen
data_Sr3V2O8
_symmetry_space_group_name_H-M   'P 1'
_cell_length_a   56.11187995
_cell_length_b   20.41523895
_cell_length_c   63.06771370
_cell_angle_alpha   30.34234327
_cell_angle_beta   17.08388950
_cell_angle_gamma   20.79419727
_symmetry_Int_Tables_number   1
_chemical_formula_structural   Sr3V2O8
_chemical_formula_sum   'Sr3 V2 O8'
_cell_volume   7203.38541507
_cell_formula_units_Z   1
loop_
 _symmetry_equiv_pos_site_id
 _symmetry_equiv_pos_as_xyz
  1  'x, y, z'
loop_
 _atom_site_type_symbol
 _atom_site_label
 _atom_site_symmetry_multiplicity
 _atom_site_fract_x
 _atom_site_fract_y
 _atom_site_fract_z
 _atom_site_occupancy
  Sr  Sr0  1  0.74894031  0.64542387  0.76670518  1.0
  Sr  Sr1  1  0.59200698  0.44169472  0.63307116  1.0
  Sr  Sr2  1  0.84190870  0.17577692  0.78694470  1.0
  V  V3  1  0.79389140  0.43703617  0.81893636  1.0
  V  V4  1  0.22082868  0.17091676  0.52072170  1.0
  O  O5  1  0.52249691  0.01649588  0.68607600  1.0
  O  O6  1  0.08858489  0.94064967  0.65240921  1.0
  O  O7  1  0.80423323  0.73353793  0.21529601  1.0
  O  O8  1  0.32911877  0.49382440  0.31730611  1.0
  O  O9  1  0.19620770  0.98858096  0.83273758  1.0
  O  O10  1  0.43271831  0.34030942  0.19771567  1.0
  O  O11  1  0.44426431  0.56089886  0.40785724  1.0
  O  O12  1  0.49507030  0.03524636  0.65028415  1.0
