# generated using pymatgen
data_SrAcAu2
_symmetry_space_group_name_H-M   'P 1'
_cell_length_a   6.45319366
_cell_length_b   4.62295341
_cell_length_c   5.22663498
_cell_angle_alpha   52.82682037
_cell_angle_beta   50.30950546
_cell_angle_gamma   54.29051208
_symmetry_Int_Tables_number   1
_chemical_formula_structural   SrAcAu2
_chemical_formula_sum   'Sr1 Ac1 Au2'
_cell_volume   90.49486048
_cell_formula_units_Z   1
loop_
 _symmetry_equiv_pos_site_id
 _symmetry_equiv_pos_as_xyz
  1  'x, y, z'
loop_
 _atom_site_type_symbol
 _atom_site_label
 _atom_site_symmetry_multiplicity
 _atom_site_fract_x
 _atom_site_fract_y
 _atom_site_fract_z
 _atom_site_occupancy
  Sr  Sr1  1  0.00000000  0.00000000  0.00000000  1.0
  Ac  Ac1  1  0.47265771  0.45495069  0.56765288  1.0
  Au  Au1  1  0.22679675  0.23545820  0.21874839  1.0
  Au  Au2  1  0.72371477  0.77210188  0.65040135  1.0
