# generated using pymatgen
data_SrAl2Te5
_symmetry_space_group_name_H-M   'P 1'
_cell_length_a   6.70483923
_cell_length_b   6.04477739
_cell_length_c   7.59934473
_cell_angle_alpha   74.82244110
_cell_angle_beta   71.77847290
_cell_angle_gamma   63.17166519
_symmetry_Int_Tables_number   1
_chemical_formula_structural   SrAl2Te5
_chemical_formula_sum   'Sr1 Al2 Te5'
_cell_volume   258.40198278
_cell_formula_units_Z   1
loop_
 _symmetry_equiv_pos_site_id
 _symmetry_equiv_pos_as_xyz
  1  'x, y, z'
loop_
 _atom_site_type_symbol
 _atom_site_label
 _atom_site_symmetry_multiplicity
 _atom_site_fract_x
 _atom_site_fract_y
 _atom_site_fract_z
 _atom_site_occupancy
  Sr  Sr1  1  0.81432903  0.95856541  0.00000000  1.0
  Al  Al1  1  0.19556496  0.53882056  0.51432174  1.0
  Al  Al2  1  0.80884445  0.28119978  0.48731968  1.0
  Te  Te1  1  0.13375953  0.37412694  0.00000000  1.0
  Te  Te2  1  0.29361659  0.90702319  0.41172877  1.0
  Te  Te3  1  0.77336383  0.33287907  0.61237156  1.0
  Te  Te4  1  0.84542167  0.61738580  0.79906917  1.0
  Te  Te5  1  0.00000000  0.00000000  0.00000000  1.0
