# generated using pymatgen
data_SrBiClO2
_symmetry_space_group_name_H-M   'P 1'
_cell_length_a   9.88679600
_cell_length_b   7.36686516
_cell_length_c   4.93490076
_cell_angle_alpha   91.08383942
_cell_angle_beta   89.10194397
_cell_angle_gamma   131.60700989
_symmetry_Int_Tables_number   1
_chemical_formula_structural   SrBiClO2
_chemical_formula_sum   'Sr2 Bi2 Cl2 O4'
_cell_volume   268.70293816
_cell_formula_units_Z   2
loop_
 _symmetry_equiv_pos_site_id
 _symmetry_equiv_pos_as_xyz
  1  'x, y, z'
loop_
 _atom_site_type_symbol
 _atom_site_label
 _atom_site_symmetry_multiplicity
 _atom_site_fract_x
 _atom_site_fract_y
 _atom_site_fract_z
 _atom_site_occupancy
  Sr  Sr1  1  0.89223969  0.13822159  0.73967612  1.0
  Sr  Sr2  1  0.16058129  0.88952279  0.42614517  1.0
  Bi  Bi1  1  0.44661617  0.66997969  0.36707002  1.0
  Bi  Bi2  1  0.54775089  0.33289808  0.77528048  1.0
  Cl  Cl1  1  0.56229508  0.29794863  0.24237701  1.0
  Cl  Cl2  1  0.29253966  0.67492819  0.66078925  1.0
  O  O1  1  0.79477859  0.74010313  0.00000000  1.0
  O  O2  1  0.66327268  0.55917412  0.62191749  1.0
  O  O3  1  0.36559728  0.22169250  0.35875258  1.0
  O  O4  1  0.26334020  0.22424157  0.00000000  1.0
