# generated using pymatgen
data_SrBiIO2
_symmetry_space_group_name_H-M   'P 1'
_cell_length_a   8.41809873
_cell_length_b   6.42915172
_cell_length_c   7.81257024
_cell_angle_alpha   103.56056460
_cell_angle_beta   106.92417720
_cell_angle_gamma   129.11072093
_symmetry_Int_Tables_number   1
_chemical_formula_structural   SrBiIO2
_chemical_formula_sum   'Sr2 Bi2 I2 O4'
_cell_volume   259.35100649
_cell_formula_units_Z   2
loop_
 _symmetry_equiv_pos_site_id
 _symmetry_equiv_pos_as_xyz
  1  'x, y, z'
loop_
 _atom_site_type_symbol
 _atom_site_label
 _atom_site_symmetry_multiplicity
 _atom_site_fract_x
 _atom_site_fract_y
 _atom_site_fract_z
 _atom_site_occupancy
  Sr  Sr0  1  0.88819125  0.85667521  0.67372670  1.0
  Sr  Sr1  1  0.30488767  0.50285565  0.61771689  1.0
  Bi  Bi2  1  0.68999693  0.56452295  0.03675056  1.0
  Bi  Bi3  1  0.50227518  0.79469622  0.25475646  1.0
  I  I4  1  0.97274896  0.47953801  0.81295291  1.0
  I  I5  1  0.21866580  0.87829633  0.47813752  1.0
  O  O6  1  0.34357504  0.41030144  0.94626936  1.0
  O  O7  1  0.84882466  0.94979183  0.34477511  1.0
  O  O8  1  0.73368775  0.79971485  0.88629542  1.0
  O  O9  1  0.45877416  0.55849139  0.40437177  1.0
