# generated using pymatgen
data_SrN2
_symmetry_space_group_name_H-M   'P 1'
_cell_length_a   4.68638754
_cell_length_b   3.99894476
_cell_length_c   4.22093773
_cell_angle_alpha   119.43591309
_cell_angle_beta   117.23423004
_cell_angle_gamma   82.51923370
_symmetry_Int_Tables_number   1
_chemical_formula_structural   SrN2
_chemical_formula_sum   'Sr1 N2'
_cell_volume   60.79428042
_cell_formula_units_Z   1
loop_
 _symmetry_equiv_pos_site_id
 _symmetry_equiv_pos_as_xyz
  1  'x, y, z'
loop_
 _atom_site_type_symbol
 _atom_site_label
 _atom_site_symmetry_multiplicity
 _atom_site_fract_x
 _atom_site_fract_y
 _atom_site_fract_z
 _atom_site_occupancy
  Sr  Sr1  1  0.00000000  0.00000000  0.00000000  1.0
  N  N1  1  0.57345873  0.57077134  0.27646738  1.0
  N  N2  1  0.55175072  0.34089905  0.63210827  1.0
