# generated using pymatgen
data_SrSn(BO3)2
_symmetry_space_group_name_H-M   'P 1'
_cell_length_a   5.70640945
_cell_length_b   3.95763540
_cell_length_c   5.04672909
_cell_angle_alpha   62.20122147
_cell_angle_beta   57.06265640
_cell_angle_gamma   52.50411606
_symmetry_Int_Tables_number   1
_chemical_formula_structural   SrSn(BO3)2
_chemical_formula_sum   'Sr1 Sn1 B2 O6'
_cell_volume   74.30685851
_cell_formula_units_Z   1
loop_
 _symmetry_equiv_pos_site_id
 _symmetry_equiv_pos_as_xyz
  1  'x, y, z'
loop_
 _atom_site_type_symbol
 _atom_site_label
 _atom_site_symmetry_multiplicity
 _atom_site_fract_x
 _atom_site_fract_y
 _atom_site_fract_z
 _atom_site_occupancy
  Sr  Sr1  1  0.00000000  0.00000000  0.00000000  1.0
  Sn  Sn1  1  0.40825337  0.36286706  0.52153546  1.0
  B  B1  1  0.77709603  0.80830908  0.60973322  1.0
  B  B2  1  0.16841495  0.18672818  0.10307750  1.0
  O  O1  1  0.72108948  0.78078437  0.11361784  1.0
  O  O2  1  0.64983982  0.00000000  0.45155507  1.0
  O  O3  1  0.89792526  0.39561501  0.28619629  1.0
  O  O4  1  0.44160715  0.32093894  0.96537989  1.0
  O  O5  1  0.26459059  0.85779572  0.38382125  1.0
  O  O6  1  0.11123859  0.53689742  0.49725705  1.0
