# generated using pymatgen
data_Ta2B
_symmetry_space_group_name_H-M   'P 1'
_cell_length_a   4.74867773
_cell_length_b   3.87069225
_cell_length_c   4.24290848
_cell_angle_alpha   90.11039734
_cell_angle_beta   88.98211670
_cell_angle_gamma   129.91911316
_symmetry_Int_Tables_number   1
_chemical_formula_structural   Ta2B
_chemical_formula_sum   'Ta4 B2'
_cell_volume   59.79860032
_cell_formula_units_Z   2
loop_
 _symmetry_equiv_pos_site_id
 _symmetry_equiv_pos_as_xyz
  1  'x, y, z'
loop_
 _atom_site_type_symbol
 _atom_site_label
 _atom_site_symmetry_multiplicity
 _atom_site_fract_x
 _atom_site_fract_y
 _atom_site_fract_z
 _atom_site_occupancy
  Ta  Ta1  1  0.68247461  0.60337764  0.55327117  1.0
  Ta  Ta2  1  0.55009359  0.74920738  0.17807901  1.0
  Ta  Ta3  1  0.14909106  0.33226693  0.42544666  1.0
  Ta  Ta4  1  0.66829967  0.00000000  0.76616240  1.0
  B  B1  1  0.75446391  0.45666173  0.00000000  1.0
  B  B2  1  0.56053090  0.27014530  0.00000000  1.0
