# generated using pymatgen
data_Ta2NbOs
_symmetry_space_group_name_H-M   'P 1'
_cell_length_a   3.41428185
_cell_length_b   1.33900857
_cell_length_c   2.61898208
_cell_angle_alpha   64.70686340
_cell_angle_beta   69.62920380
_cell_angle_gamma   66.18511963
_symmetry_Int_Tables_number   1
_chemical_formula_structural   Ta2NbOs
_chemical_formula_sum   'Ta2 Nb1 Os1'
_cell_volume   9.67806694
_cell_formula_units_Z   1
loop_
 _symmetry_equiv_pos_site_id
 _symmetry_equiv_pos_as_xyz
  1  'x, y, z'
loop_
 _atom_site_type_symbol
 _atom_site_label
 _atom_site_symmetry_multiplicity
 _atom_site_fract_x
 _atom_site_fract_y
 _atom_site_fract_z
 _atom_site_occupancy
  Ta  Ta1  1  0.00000000  0.00000000  0.00000000  1.0
  Ta  Ta2  1  0.52765328  0.54273552  0.45750445  1.0
  Nb  Nb1  1  0.79690051  0.74673671  0.73583394  1.0
  Os  Os1  1  0.35529375  0.11785883  0.34824944  1.0
