# generated using pymatgen
data_Ta3N2
_symmetry_space_group_name_H-M   'P 1'
_cell_length_a   3.52079177
_cell_length_b   4.83610153
_cell_length_c   3.14899063
_cell_angle_alpha   86.56479645
_cell_angle_beta   106.70704651
_cell_angle_gamma   126.71323395
_symmetry_Int_Tables_number   1
_chemical_formula_structural   Ta3N2
_chemical_formula_sum   'Ta3 N2'
_cell_volume   40.72761618
_cell_formula_units_Z   1
loop_
 _symmetry_equiv_pos_site_id
 _symmetry_equiv_pos_as_xyz
  1  'x, y, z'
loop_
 _atom_site_type_symbol
 _atom_site_label
 _atom_site_symmetry_multiplicity
 _atom_site_fract_x
 _atom_site_fract_y
 _atom_site_fract_z
 _atom_site_occupancy
  Ta  Ta1  1  0.00000000  0.00000000  0.00000000  1.0
  Ta  Ta2  1  0.39332795  0.61139429  0.63334668  1.0
  Ta  Ta3  1  0.69332719  0.38625512  0.53549355  1.0
  N  N1  1  0.60587645  0.00000000  0.00000000  1.0
  N  N2  1  0.00000000  0.10972801  0.00000000  1.0
