# generated using pymatgen
data_Ta
_symmetry_space_group_name_H-M   'P 1'
_cell_length_a   2.21268392
_cell_length_b   3.59724784
_cell_length_c   1.91219187
_cell_angle_alpha   88.31209564
_cell_angle_beta   79.19832611
_cell_angle_gamma   124.01689148
_symmetry_Int_Tables_number   1
_chemical_formula_structural   Ta
_chemical_formula_sum   Ta4
_cell_volume   12.22235983
_cell_formula_units_Z   4
loop_
 _symmetry_equiv_pos_site_id
 _symmetry_equiv_pos_as_xyz
  1  'x, y, z'
loop_
 _atom_site_type_symbol
 _atom_site_label
 _atom_site_symmetry_multiplicity
 _atom_site_fract_x
 _atom_site_fract_y
 _atom_site_fract_z
 _atom_site_occupancy
  Ta  Ta1  1  0.46773353  0.81798482  0.65834564  1.0
  Ta  Ta2  1  0.47798067  0.88820517  0.12030041  1.0
  Ta  Ta3  1  0.21258256  0.43139684  0.58805883  1.0
  Ta  Ta4  1  0.55866754  0.10819039  0.91460180  1.0
