# generated using pymatgen
data_TaCu3Se3S
_symmetry_space_group_name_H-M   'P 1'
_cell_length_a   6.35465384
_cell_length_b   6.06176043
_cell_length_c   7.03400898
_cell_angle_alpha   79.96334076
_cell_angle_beta   79.60538483
_cell_angle_gamma   71.92411804
_symmetry_Int_Tables_number   1
_chemical_formula_structural   TaCu3Se3S
_chemical_formula_sum   'Ta1 Cu3 Se3 S1'
_cell_volume   251.31724801
_cell_formula_units_Z   1
loop_
 _symmetry_equiv_pos_site_id
 _symmetry_equiv_pos_as_xyz
  1  'x, y, z'
loop_
 _atom_site_type_symbol
 _atom_site_label
 _atom_site_symmetry_multiplicity
 _atom_site_fract_x
 _atom_site_fract_y
 _atom_site_fract_z
 _atom_site_occupancy
  Ta  Ta1  1  0.92884338  0.94609243  0.93398982  1.0
  Cu  Cu1  1  0.00000000  0.56887746  0.14580303  1.0
  Cu  Cu2  1  0.00000000  0.00000000  0.52240777  1.0
  Cu  Cu3  1  0.27246910  0.00000000  0.00000000  1.0
  Se  Se1  1  0.17135373  0.82247746  0.77778858  1.0
  Se  Se2  1  0.71128613  0.81500453  0.21677604  1.0
  Se  Se3  1  0.70233327  0.18737152  0.80487895  1.0
  S  S1  1  0.18199784  0.27494764  0.36729300  1.0
