# generated using pymatgen
data_TaGaFe2
_symmetry_space_group_name_H-M   'P 1'
_cell_length_a   4.05104828
_cell_length_b   4.21986055
_cell_length_c   3.67818761
_cell_angle_alpha   49.72431946
_cell_angle_beta   49.21216965
_cell_angle_gamma   57.04143906
_symmetry_Int_Tables_number   1
_chemical_formula_structural   TaGaFe2
_chemical_formula_sum   'Ta1 Ga1 Fe2'
_cell_volume   35.50597771
_cell_formula_units_Z   1
loop_
 _symmetry_equiv_pos_site_id
 _symmetry_equiv_pos_as_xyz
  1  'x, y, z'
loop_
 _atom_site_type_symbol
 _atom_site_label
 _atom_site_symmetry_multiplicity
 _atom_site_fract_x
 _atom_site_fract_y
 _atom_site_fract_z
 _atom_site_occupancy
  Ta  Ta1  1  0.74489897  0.69808197  0.76749265  1.0
  Ga  Ga1  1  0.37626377  0.25785285  0.12723687  1.0
  Fe  Fe1  1  0.00000000  0.94706827  0.95970732  1.0
  Fe  Fe2  1  0.51812345  0.42759132  0.44199544  1.0
