# generated using pymatgen
data_TaN
_symmetry_space_group_name_H-M   'P 1'
_cell_length_a   3.62387300
_cell_length_b   6.24930000
_cell_length_c   3.08909178
_cell_angle_alpha   97.34439850
_cell_angle_beta   102.51174164
_cell_angle_gamma   128.17745972
_symmetry_Int_Tables_number   1
_chemical_formula_structural   TaN
_chemical_formula_sum   'Ta3 N3'
_cell_volume   50.46872193
_cell_formula_units_Z   3
loop_
 _symmetry_equiv_pos_site_id
 _symmetry_equiv_pos_as_xyz
  1  'x, y, z'
loop_
 _atom_site_type_symbol
 _atom_site_label
 _atom_site_symmetry_multiplicity
 _atom_site_fract_x
 _atom_site_fract_y
 _atom_site_fract_z
 _atom_site_occupancy
  Ta  Ta1  1  0.00000000  0.00000000  0.00000000  1.0
  Ta  Ta2  1  0.30893821  0.79278958  0.60367930  1.0
  Ta  Ta3  1  0.54264617  0.24147984  0.48432302  1.0
  N  N1  1  0.28644758  0.00000000  0.00000000  1.0
  N  N2  1  0.63995987  0.16245115  0.00000000  1.0
  N  N3  1  0.00000000  0.54709584  0.00000000  1.0
