# generated using pymatgen
data_TaZnCo2
_symmetry_space_group_name_H-M   'P 1'
_cell_length_a   4.29048347
_cell_length_b   5.04925013
_cell_length_c   4.44078493
_cell_angle_alpha   50.94091415
_cell_angle_beta   52.07905197
_cell_angle_gamma   55.97015762
_symmetry_Int_Tables_number   1
_chemical_formula_structural   TaZnCo2
_chemical_formula_sum   'Ta1 Zn1 Co2'
_cell_volume   56.54815496
_cell_formula_units_Z   1
loop_
 _symmetry_equiv_pos_site_id
 _symmetry_equiv_pos_as_xyz
  1  'x, y, z'
loop_
 _atom_site_type_symbol
 _atom_site_label
 _atom_site_symmetry_multiplicity
 _atom_site_fract_x
 _atom_site_fract_y
 _atom_site_fract_z
 _atom_site_occupancy
  Ta  Ta1  1  0.23783696  0.33878911  0.19650000  1.0
  Zn  Zn1  1  0.67360008  0.78456545  0.66392350  1.0
  Co  Co1  1  0.46053964  0.54856402  0.35407662  1.0
  Co  Co2  1  0.00000000  0.00000000  0.00000000  1.0
