# generated using pymatgen
data_TbBO3
_symmetry_space_group_name_H-M   'P 1'
_cell_length_a   4.15063095
_cell_length_b   4.42400837
_cell_length_c   10.78347015
_cell_angle_alpha   89.68628693
_cell_angle_beta   93.66967773
_cell_angle_gamma   65.40105438
_symmetry_Int_Tables_number   1
_chemical_formula_structural   TbBO3
_chemical_formula_sum   'Tb2 B2 O6'
_cell_volume   179.55823224
_cell_formula_units_Z   2
loop_
 _symmetry_equiv_pos_site_id
 _symmetry_equiv_pos_as_xyz
  1  'x, y, z'
loop_
 _atom_site_type_symbol
 _atom_site_label
 _atom_site_symmetry_multiplicity
 _atom_site_fract_x
 _atom_site_fract_y
 _atom_site_fract_z
 _atom_site_occupancy
  Tb  Tb1  1  0.92119557  0.89782286  0.56179345  1.0
  Tb  Tb2  1  0.87664831  0.83555174  0.92961609  1.0
  B  B1  1  0.79779965  0.78046000  0.85279274  1.0
  B  B2  1  0.12756774  0.36147732  0.23295847  1.0
  O  O1  1  0.47748202  0.84082246  0.63879079  1.0
  O  O2  1  0.30195203  0.42548227  0.00000000  1.0
  O  O3  1  0.19344848  0.23836845  0.48446837  1.0
  O  O4  1  0.54213697  0.73013139  0.79218018  1.0
  O  O5  1  0.74908197  0.21665737  0.82464838  1.0
  O  O6  1  0.00000000  0.00000000  0.22303589  1.0
