# generated using pymatgen
data_TbSe
_symmetry_space_group_name_H-M   'P 1'
_cell_length_a   3.59384918
_cell_length_b   4.33329582
_cell_length_c   3.37792039
_cell_angle_alpha   66.86973572
_cell_angle_beta   57.79870605
_cell_angle_gamma   53.45803833
_symmetry_Int_Tables_number   1
_chemical_formula_structural   TbSe
_chemical_formula_sum   'Tb1 Se1'
_cell_volume   35.54160954
_cell_formula_units_Z   1
loop_
 _symmetry_equiv_pos_site_id
 _symmetry_equiv_pos_as_xyz
  1  'x, y, z'
loop_
 _atom_site_type_symbol
 _atom_site_label
 _atom_site_symmetry_multiplicity
 _atom_site_fract_x
 _atom_site_fract_y
 _atom_site_fract_z
 _atom_site_occupancy
  Tb  Tb1  1  0.40971422  0.43574417  0.47632834  1.0
  Se  Se1  1  0.00000000  0.00000000  0.00000000  1.0
