# generated using pymatgen
data_Tc4N
_symmetry_space_group_name_H-M   'P 1'
_cell_length_a   1.17901933
_cell_length_b   0.85432369
_cell_length_c   3.95981932
_cell_angle_alpha   97.88825226
_cell_angle_beta   101.19704437
_cell_angle_gamma   101.36869049
_symmetry_Int_Tables_number   1
_chemical_formula_structural   Tc4N
_chemical_formula_sum   'Tc4 N1'
_cell_volume   3.77146701
_cell_formula_units_Z   1
loop_
 _symmetry_equiv_pos_site_id
 _symmetry_equiv_pos_as_xyz
  1  'x, y, z'
loop_
 _atom_site_type_symbol
 _atom_site_label
 _atom_site_symmetry_multiplicity
 _atom_site_fract_x
 _atom_site_fract_y
 _atom_site_fract_z
 _atom_site_occupancy
  Tc  Tc1  1  0.86295861  0.43719354  0.34967420  1.0
  Tc  Tc2  1  0.39508396  0.69247174  0.87879443  1.0
  Tc  Tc3  1  0.31237194  0.65193677  0.13654986  1.0
  Tc  Tc4  1  0.81798130  0.55725962  0.00000000  1.0
  N  N1  1  0.00000000  0.00000000  0.00000000  1.0
