# generated using pymatgen
data_Tc
_symmetry_space_group_name_H-M   'P 1'
_cell_length_a   1.60757744
_cell_length_b   0.89443922
_cell_length_c   4.14157152
_cell_angle_alpha   93.20822906
_cell_angle_beta   91.45272064
_cell_angle_gamma   127.48593140
_symmetry_Int_Tables_number   1
_chemical_formula_structural   Tc
_chemical_formula_sum   Tc4
_cell_volume   4.70468604
_cell_formula_units_Z   4
loop_
 _symmetry_equiv_pos_site_id
 _symmetry_equiv_pos_as_xyz
  1  'x, y, z'
loop_
 _atom_site_type_symbol
 _atom_site_label
 _atom_site_symmetry_multiplicity
 _atom_site_fract_x
 _atom_site_fract_y
 _atom_site_fract_z
 _atom_site_occupancy
  Tc  Tc1  1  0.76678228  0.36024430  0.60639548  1.0
  Tc  Tc2  1  0.30669597  0.68921393  0.88644516  1.0
  Tc  Tc3  1  0.38064560  0.60256755  0.25807539  1.0
  Tc  Tc4  1  0.68458229  0.16823810  0.00000000  1.0
