# generated using pymatgen
data_TcN
_symmetry_space_group_name_H-M   'P 1'
_cell_length_a   1.29355252
_cell_length_b   1.12024629
_cell_length_c   5.24634361
_cell_angle_alpha   97.73039246
_cell_angle_beta   99.87924194
_cell_angle_gamma   134.19010925
_symmetry_Int_Tables_number   1
_chemical_formula_structural   TcN
_chemical_formula_sum   'Tc2 N2'
_cell_volume   5.01088020
_cell_formula_units_Z   2
loop_
 _symmetry_equiv_pos_site_id
 _symmetry_equiv_pos_as_xyz
  1  'x, y, z'
loop_
 _atom_site_type_symbol
 _atom_site_label
 _atom_site_symmetry_multiplicity
 _atom_site_fract_x
 _atom_site_fract_y
 _atom_site_fract_z
 _atom_site_occupancy
  Tc  Tc1  1  0.76789480  0.31618208  0.68591487  1.0
  Tc  Tc2  1  0.50076199  0.72106105  0.89294279  1.0
  N  N1  1  0.16560292  0.68569303  0.17313889  1.0
  N  N2  1  0.81518042  0.40358558  0.00000000  1.0
