# generated using pymatgen
data_ThBrN
_symmetry_space_group_name_H-M   'P 1'
_cell_length_a   4.05456684
_cell_length_b   4.06040190
_cell_length_c   9.60151438
_cell_angle_alpha   90.93552491
_cell_angle_beta   113.41228405
_cell_angle_gamma   90.00136496
_symmetry_Int_Tables_number   1
_chemical_formula_structural   ThBrN
_chemical_formula_sum   'Th2 Br2 N2'
_cell_volume   145.03428221
_cell_formula_units_Z   2
loop_
 _symmetry_equiv_pos_site_id
 _symmetry_equiv_pos_as_xyz
  1  'x, y, z'
loop_
 _atom_site_type_symbol
 _atom_site_label
 _atom_site_symmetry_multiplicity
 _atom_site_fract_x
 _atom_site_fract_y
 _atom_site_fract_z
 _atom_site_occupancy
  Th  Th0  1  0.42001763  0.80493248  0.91113283  1.0
  Th  Th1  1  0.16856502  0.31519653  0.17584295  1.0
  Br  Br2  1  0.72978031  0.29929605  0.71265034  1.0
  Br  Br3  1  0.86138555  0.82444109  0.37419855  1.0
  N  N4  1  0.54388166  0.30988599  0.04332083  1.0
  N  N5  1  0.04461800  0.81013127  0.04366180  1.0
