# generated using pymatgen
data_Ti2Pt7
_symmetry_space_group_name_H-M   'P 1'
_cell_length_a   5.63842869
_cell_length_b   3.75830555
_cell_length_c   2.20982337
_cell_angle_alpha   83.47074127
_cell_angle_beta   89.05792236
_cell_angle_gamma   128.08872986
_symmetry_Int_Tables_number   1
_chemical_formula_structural   Ti2Pt7
_chemical_formula_sum   'Ti2 Pt7'
_cell_volume   36.39221444
_cell_formula_units_Z   1
loop_
 _symmetry_equiv_pos_site_id
 _symmetry_equiv_pos_as_xyz
  1  'x, y, z'
loop_
 _atom_site_type_symbol
 _atom_site_label
 _atom_site_symmetry_multiplicity
 _atom_site_fract_x
 _atom_site_fract_y
 _atom_site_fract_z
 _atom_site_occupancy
  Ti  Ti1  1  0.22829384  0.70862895  0.65367353  1.0
  Ti  Ti2  1  0.67773235  0.25393993  0.11754024  1.0
  Pt  Pt1  1  0.14218035  0.12043869  0.26542521  1.0
  Pt  Pt2  1  0.76239645  0.89057148  0.13376915  1.0
  Pt  Pt3  1  0.24507663  0.83996284  0.21758103  1.0
  Pt  Pt4  1  0.75692916  0.62545776  0.75658053  1.0
  Pt  Pt5  1  0.24849093  0.00000000  0.59909451  1.0
  Pt  Pt6  1  0.82365203  0.14398798  0.79491961  1.0
  Pt  Pt7  1  0.00000000  0.27302909  0.00000000  1.0
