# generated using pymatgen
data_Ti2Sb
_symmetry_space_group_name_H-M   'P 1'
_cell_length_a   4.75346041
_cell_length_b   4.09484911
_cell_length_c   7.75345898
_cell_angle_alpha   108.98782349
_cell_angle_beta   115.99361420
_cell_angle_gamma   110.71656036
_symmetry_Int_Tables_number   1
_chemical_formula_structural   Ti2Sb
_chemical_formula_sum   'Ti4 Sb2'
_cell_volume   104.12648058
_cell_formula_units_Z   2
loop_
 _symmetry_equiv_pos_site_id
 _symmetry_equiv_pos_as_xyz
  1  'x, y, z'
loop_
 _atom_site_type_symbol
 _atom_site_label
 _atom_site_symmetry_multiplicity
 _atom_site_fract_x
 _atom_site_fract_y
 _atom_site_fract_z
 _atom_site_occupancy
  Ti  Ti1  1  0.19439769  0.10749665  0.25541878  1.0
  Ti  Ti2  1  0.80301213  0.84054625  0.67502558  1.0
  Ti  Ti3  1  0.92906582  0.55529231  0.91687965  1.0
  Ti  Ti4  1  0.55787712  0.79905581  0.93192649  1.0
  Sb  Sb1  1  0.40487808  0.44330204  0.71325797  1.0
  Sb  Sb2  1  0.70577419  0.83009493  0.33895093  1.0
