# generated using pymatgen
data_TiCdO3
_symmetry_space_group_name_H-M   'P 1'
_cell_length_a   11.36841850
_cell_length_b   14.11198513
_cell_length_c   24.19284124
_cell_angle_alpha   19.26944277
_cell_angle_beta   38.53203105
_cell_angle_gamma   41.87231717
_symmetry_Int_Tables_number   1
_chemical_formula_structural   TiCdO3
_chemical_formula_sum   'Ti2 Cd2 O6'
_cell_volume   797.55486126
_cell_formula_units_Z   2
loop_
 _symmetry_equiv_pos_site_id
 _symmetry_equiv_pos_as_xyz
  1  'x, y, z'
loop_
 _atom_site_type_symbol
 _atom_site_label
 _atom_site_symmetry_multiplicity
 _atom_site_fract_x
 _atom_site_fract_y
 _atom_site_fract_z
 _atom_site_occupancy
  Ti  Ti0  1  0.73281232  0.86881092  0.71776482  1.0
  Ti  Ti1  1  0.79352292  0.19142186  0.48988706  1.0
  Cd  Cd2  1  0.61202980  0.60489558  0.56471399  1.0
  Cd  Cd3  1  0.63723671  0.26748999  0.09881748  1.0
  O  O4  1  0.56762816  0.61695157  0.08325145  1.0
  O  O5  1  0.75275173  0.16033153  0.25881268  1.0
  O  O6  1  0.98046023  0.69104350  0.54047723  1.0
  O  O7  1  0.21893847  0.18495337  0.85383033  1.0
  O  O8  1  0.92956546  0.15652363  0.27201237  1.0
  O  O9  1  0.92484785  0.74093280  0.50272477  1.0
