# generated using pymatgen
data_TiCdO3
_symmetry_space_group_name_H-M   'P 1'
_cell_length_a   5.88074658
_cell_length_b   5.83549095
_cell_length_c   5.87396257
_cell_angle_alpha   53.92047401
_cell_angle_beta   53.70548127
_cell_angle_gamma   53.98845679
_symmetry_Int_Tables_number   1
_chemical_formula_structural   TiCdO3
_chemical_formula_sum   'Ti2 Cd2 O6'
_cell_volume   122.12121312
_cell_formula_units_Z   2
loop_
 _symmetry_equiv_pos_site_id
 _symmetry_equiv_pos_as_xyz
  1  'x, y, z'
loop_
 _atom_site_type_symbol
 _atom_site_label
 _atom_site_symmetry_multiplicity
 _atom_site_fract_x
 _atom_site_fract_y
 _atom_site_fract_z
 _atom_site_occupancy
  Ti  Ti0  1  0.82425177  0.82689250  0.86772567  1.0
  Ti  Ti1  1  0.12207593  0.12646254  0.16471313  1.0
  Cd  Cd2  1  0.60898181  0.61397738  0.65208463  1.0
  Cd  Cd3  1  0.33767092  0.33941555  0.38067803  1.0
  O  O4  1  0.77959327  0.41183283  0.05324602  1.0
  O  O5  1  0.41091960  0.01162322  0.82181696  1.0
  O  O6  1  0.00968665  0.78059438  0.45352126  1.0
  O  O7  1  0.16730852  0.54155435  0.97835119  1.0
  O  O8  1  0.93649315  0.17298702  0.57828384  1.0
  O  O9  1  0.53532594  0.94108808  0.21069505  1.0
