# generated using pymatgen
data_TiN
_symmetry_space_group_name_H-M   'P 1'
_cell_length_a   2.74413180
_cell_length_b   3.37441969
_cell_length_c   2.88575268
_cell_angle_alpha   52.95967484
_cell_angle_beta   53.64759064
_cell_angle_gamma   60.68191528
_symmetry_Int_Tables_number   1
_chemical_formula_structural   TiN
_chemical_formula_sum   'Ti1 N1'
_cell_volume   16.80912517
_cell_formula_units_Z   1
loop_
 _symmetry_equiv_pos_site_id
 _symmetry_equiv_pos_as_xyz
  1  'x, y, z'
loop_
 _atom_site_type_symbol
 _atom_site_label
 _atom_site_symmetry_multiplicity
 _atom_site_fract_x
 _atom_site_fract_y
 _atom_site_fract_z
 _atom_site_occupancy
  Ti  Ti1  1  0.00000000  0.00000000  0.00000000  1.0
  N  N1  1  0.41539049  0.53853959  0.44661087  1.0
