# generated using pymatgen
data_TiSi
_symmetry_space_group_name_H-M   'P 1'
_cell_length_a   3.64524841
_cell_length_b   3.28312182
_cell_length_c   2.82583189
_cell_angle_alpha   49.52135468
_cell_angle_beta   51.96174240
_cell_angle_gamma   47.63788223
_symmetry_Int_Tables_number   1
_chemical_formula_structural   TiSi
_chemical_formula_sum   'Ti1 Si1'
_cell_volume   18.02058854
_cell_formula_units_Z   1
loop_
 _symmetry_equiv_pos_site_id
 _symmetry_equiv_pos_as_xyz
  1  'x, y, z'
loop_
 _atom_site_type_symbol
 _atom_site_label
 _atom_site_symmetry_multiplicity
 _atom_site_fract_x
 _atom_site_fract_y
 _atom_site_fract_z
 _atom_site_occupancy
  Ti  Ti1  1  0.82709855  0.82556736  0.80900037  1.0
  Si  Si1  1  0.27777630  0.30259117  0.20584252  1.0
