# generated using pymatgen
data_Tl2GaHF6
_symmetry_space_group_name_H-M   'P 1'
_cell_length_a   6.89751053
_cell_length_b   6.18793440
_cell_length_c   7.15959167
_cell_angle_alpha   49.57712936
_cell_angle_beta   49.39179993
_cell_angle_gamma   63.22460938
_symmetry_Int_Tables_number   1
_chemical_formula_structural   Tl2GaHF6
_chemical_formula_sum   'Tl2 Ga1 H1 F6'
_cell_volume   176.39550113
_cell_formula_units_Z   1
loop_
 _symmetry_equiv_pos_site_id
 _symmetry_equiv_pos_as_xyz
  1  'x, y, z'
loop_
 _atom_site_type_symbol
 _atom_site_label
 _atom_site_symmetry_multiplicity
 _atom_site_fract_x
 _atom_site_fract_y
 _atom_site_fract_z
 _atom_site_occupancy
  Tl  Tl1  1  0.25174981  0.23280945  0.31189504  1.0
  Tl  Tl2  1  0.69694257  0.70597160  0.81853265  1.0
  Ga  Ga1  1  0.47493494  0.49132767  0.52431530  1.0
  H  H1  1  0.00000000  0.00000000  0.00000000  1.0
  F  F1  1  0.29155180  0.75955749  0.65477669  1.0
  F  F2  1  0.26642406  0.66734606  0.30066928  1.0
  F  F3  1  0.67829382  0.29089805  0.69152075  1.0
  F  F4  1  0.80311108  0.70843470  0.21508747  1.0
  F  F5  1  0.29717737  0.30951279  0.63519675  1.0
  F  F6  1  0.85741496  0.26433626  0.34625617  1.0
