# generated using pymatgen
data_Tl2TeCl6
_symmetry_space_group_name_H-M   'P 1'
_cell_length_a   7.56977062
_cell_length_b   7.30966096
_cell_length_c   7.37444845
_cell_angle_alpha   60.28011192
_cell_angle_beta   61.37119217
_cell_angle_gamma   61.77506034
_symmetry_Int_Tables_number   1
_chemical_formula_structural   Tl2TeCl6
_chemical_formula_sum   'Tl2 Te1 Cl6'
_cell_volume   295.84440967
_cell_formula_units_Z   1
loop_
 _symmetry_equiv_pos_site_id
 _symmetry_equiv_pos_as_xyz
  1  'x, y, z'
loop_
 _atom_site_type_symbol
 _atom_site_label
 _atom_site_symmetry_multiplicity
 _atom_site_fract_x
 _atom_site_fract_y
 _atom_site_fract_z
 _atom_site_occupancy
  Tl  Tl0  1  0.17520840  0.31794726  0.33471140  1.0
  Tl  Tl1  1  0.71642972  0.78100863  0.83742420  1.0
  Te  Te2  1  0.94628188  0.04881487  0.08113835  1.0
  Cl  Cl3  1  0.12799186  0.85681316  0.37586516  1.0
  Cl  Cl4  1  0.25510655  0.80605499  0.85896711  1.0
  Cl  Cl5  1  0.76273865  0.24245534  0.78698254  1.0
  Cl  Cl6  1  0.63714459  0.29106215  0.30476411  1.0
  Cl  Cl7  1  0.75402620  0.75526453  0.28333933  1.0
  Cl  Cl8  1  0.13969903  0.33986302  0.87737194  1.0
