# generated using pymatgen
data_Tl3FeF6
_symmetry_space_group_name_H-M   'P 1'
_cell_length_a   5.84003970
_cell_length_b   6.80775164
_cell_length_c   6.51503010
_cell_angle_alpha   63.52653627
_cell_angle_beta   60.34457778
_cell_angle_gamma   56.98637729
_symmetry_Int_Tables_number   1
_chemical_formula_structural   Tl3FeF6
_chemical_formula_sum   'Tl3 Fe1 F6'
_cell_volume   183.14930411
_cell_formula_units_Z   1
loop_
 _symmetry_equiv_pos_site_id
 _symmetry_equiv_pos_as_xyz
  1  'x, y, z'
loop_
 _atom_site_type_symbol
 _atom_site_label
 _atom_site_symmetry_multiplicity
 _atom_site_fract_x
 _atom_site_fract_y
 _atom_site_fract_z
 _atom_site_occupancy
  Tl  Tl0  1  0.28361385  0.23896512  0.28829782  1.0
  Tl  Tl1  1  0.76808003  0.73957189  0.80356254  1.0
  Tl  Tl2  1  0.52635404  0.48835048  0.54576575  1.0
  Fe  Fe3  1  0.02578748  0.98915072  0.04661374  1.0
  F  F4  1  0.78568594  0.28450574  0.16575685  1.0
  F  F5  1  0.26506718  0.69491251  0.92631287  1.0
  F  F6  1  0.28460299  0.87116214  0.22295779  1.0
  F  F7  1  0.76556856  0.10753055  0.87132601  1.0
  F  F8  1  0.27314011  0.14303157  0.76157069  1.0
  F  F9  1  0.78047528  0.83368674  0.33243392  1.0
