# generated using pymatgen
data_TlGeCl3
_symmetry_space_group_name_H-M   'P 1'
_cell_length_a   5.41420412
_cell_length_b   5.08446312
_cell_length_c   4.51768351
_cell_angle_alpha   100.24334717
_cell_angle_beta   84.44947815
_cell_angle_gamma   86.29203796
_symmetry_Int_Tables_number   1
_chemical_formula_structural   TlGeCl3
_chemical_formula_sum   'Tl1 Ge1 Cl3'
_cell_volume   121.38193921
_cell_formula_units_Z   1
loop_
 _symmetry_equiv_pos_site_id
 _symmetry_equiv_pos_as_xyz
  1  'x, y, z'
loop_
 _atom_site_type_symbol
 _atom_site_label
 _atom_site_symmetry_multiplicity
 _atom_site_fract_x
 _atom_site_fract_y
 _atom_site_fract_z
 _atom_site_occupancy
  Tl  Tl1  1  0.97201538  0.95444953  0.00000000  1.0
  Ge  Ge1  1  0.66766244  0.39503279  0.30836144  1.0
  Cl  Cl1  1  0.56157130  0.00000000  0.57536560  1.0
  Cl  Cl2  1  0.54624838  0.50796366  0.00000000  1.0
  Cl  Cl3  1  0.00000000  0.47121888  0.35462850  1.0
