# generated using pymatgen
data_TmBr3
_symmetry_space_group_name_H-M   'P 1'
_cell_length_a   8.61847433
_cell_length_b   8.83969627
_cell_length_c   5.51268294
_cell_angle_alpha   106.58383592
_cell_angle_beta   73.07799547
_cell_angle_gamma   124.69061613
_symmetry_Int_Tables_number   1
_chemical_formula_structural   TmBr3
_chemical_formula_sum   'Tm2 Br6'
_cell_volume   326.52202770
_cell_formula_units_Z   2
loop_
 _symmetry_equiv_pos_site_id
 _symmetry_equiv_pos_as_xyz
  1  'x, y, z'
loop_
 _atom_site_type_symbol
 _atom_site_label
 _atom_site_symmetry_multiplicity
 _atom_site_fract_x
 _atom_site_fract_y
 _atom_site_fract_z
 _atom_site_occupancy
  Tm  Tm0  1  0.07979473  0.71730661  0.30738865  1.0
  Tm  Tm1  1  0.57802869  0.21938628  0.30802820  1.0
  Br  Br2  1  0.96507724  0.34344158  0.18898272  1.0
  Br  Br3  1  0.46812948  0.84659718  0.18592284  1.0
  Br  Br4  1  0.07883126  0.71535740  0.80651629  1.0
  Br  Br5  1  0.69239827  0.59318600  0.42686674  1.0
  Br  Br6  1  0.57575683  0.21947164  0.81004487  1.0
  Br  Br7  1  0.18929264  0.08968215  0.42940808  1.0
