# generated using pymatgen
data_TmMgCu
_symmetry_space_group_name_H-M   'P 1'
_cell_length_a   7.36475086
_cell_length_b   9.69151211
_cell_length_c   4.82022095
_cell_angle_alpha   85.46372223
_cell_angle_beta   84.99334717
_cell_angle_gamma   105.86811829
_symmetry_Int_Tables_number   1
_chemical_formula_structural   TmMgCu
_chemical_formula_sum   'Tm3 Mg3 Cu3'
_cell_volume   327.76469122
_cell_formula_units_Z   3
loop_
 _symmetry_equiv_pos_site_id
 _symmetry_equiv_pos_as_xyz
  1  'x, y, z'
loop_
 _atom_site_type_symbol
 _atom_site_label
 _atom_site_symmetry_multiplicity
 _atom_site_fract_x
 _atom_site_fract_y
 _atom_site_fract_z
 _atom_site_occupancy
  Tm  Tm1  1  0.65542293  0.00000000  0.00000000  1.0
  Tm  Tm2  1  0.00000000  0.57948548  0.00000000  1.0
  Tm  Tm3  1  0.36685753  0.34802637  0.00000000  1.0
  Mg  Mg1  1  0.32173961  0.00000000  0.61554605  1.0
  Mg  Mg2  1  0.00000000  0.35591173  0.37282920  1.0
  Mg  Mg3  1  0.79655910  0.69968468  0.41461581  1.0
  Cu  Cu1  1  0.56294203  0.74033815  0.67992860  1.0
  Cu  Cu2  1  0.56087440  0.41765469  0.39029157  1.0
  Cu  Cu3  1  0.00000000  0.00000000  0.00000000  1.0
