# generated using pymatgen
data_TmPaO4
_symmetry_space_group_name_H-M   'P 1'
_cell_length_a   4.33970737
_cell_length_b   4.13856649
_cell_length_c   5.74596453
_cell_angle_alpha   82.57072449
_cell_angle_beta   90.96170044
_cell_angle_gamma   83.77251434
_symmetry_Int_Tables_number   1
_chemical_formula_structural   TmPaO4
_chemical_formula_sum   'Tm1 Pa1 O4'
_cell_volume   101.67859755
_cell_formula_units_Z   1
loop_
 _symmetry_equiv_pos_site_id
 _symmetry_equiv_pos_as_xyz
  1  'x, y, z'
loop_
 _atom_site_type_symbol
 _atom_site_label
 _atom_site_symmetry_multiplicity
 _atom_site_fract_x
 _atom_site_fract_y
 _atom_site_fract_z
 _atom_site_occupancy
  Tm  Tm1  1  0.00000000  0.00000000  0.00000000  1.0
  Pa  Pa1  1  0.48628235  0.32724917  0.52875823  1.0
  O  O1  1  0.46038279  0.00000000  0.74820930  1.0
  O  O2  1  0.00000000  0.49422354  0.19034287  1.0
  O  O3  1  0.53811431  0.00000000  0.12904420  1.0
  O  O4  1  0.00000000  0.36460298  0.71057749  1.0
