# generated using pymatgen
data_TmTlS2
_symmetry_space_group_name_H-M   'P 1'
_cell_length_a   3.10466146
_cell_length_b   4.66629887
_cell_length_c   11.70519066
_cell_angle_alpha   90.22209930
_cell_angle_beta   86.13434601
_cell_angle_gamma   71.28409576
_symmetry_Int_Tables_number   1
_chemical_formula_structural   TmTlS2
_chemical_formula_sum   'Tm1 Tl1 S2'
_cell_volume   160.18556491
_cell_formula_units_Z   1
loop_
 _symmetry_equiv_pos_site_id
 _symmetry_equiv_pos_as_xyz
  1  'x, y, z'
loop_
 _atom_site_type_symbol
 _atom_site_label
 _atom_site_symmetry_multiplicity
 _atom_site_fract_x
 _atom_site_fract_y
 _atom_site_fract_z
 _atom_site_occupancy
  Tm  Tm1  1  0.00000000  0.00000000  0.00000000  1.0
  Tl  Tl1  1  0.47069395  0.61199605  0.44752508  1.0
  S  S1  1  0.26056245  0.21999845  0.18766153  1.0
  S  S2  1  0.64486051  0.61041331  0.70874822  1.0
