# generated using pymatgen
data_TmTl3
_symmetry_space_group_name_H-M   'P 1'
_cell_length_a   4.37317181
_cell_length_b   4.01257801
_cell_length_c   5.91531372
_cell_angle_alpha   88.98393250
_cell_angle_beta   94.83216858
_cell_angle_gamma   104.79955292
_symmetry_Int_Tables_number   1
_chemical_formula_structural   TmTl3
_chemical_formula_sum   'Tm1 Tl3'
_cell_volume   99.99911351
_cell_formula_units_Z   1
loop_
 _symmetry_equiv_pos_site_id
 _symmetry_equiv_pos_as_xyz
  1  'x, y, z'
loop_
 _atom_site_type_symbol
 _atom_site_label
 _atom_site_symmetry_multiplicity
 _atom_site_fract_x
 _atom_site_fract_y
 _atom_site_fract_z
 _atom_site_occupancy
  Tm  Tm1  1  0.00000000  0.00000000  0.00000000  1.0
  Tl  Tl1  1  0.56284082  0.51765060  0.00000000  1.0
  Tl  Tl2  1  0.48053324  0.00000000  0.63359427  1.0
  Tl  Tl3  1  0.00000000  0.48419532  0.47775677  1.0
