# generated using pymatgen
data_UC
_symmetry_space_group_name_H-M   'P 1'
_cell_length_a   8.24512196
_cell_length_b   7.57682610
_cell_length_c   7.87791395
_cell_angle_alpha   28.07836723
_cell_angle_beta   24.48667336
_cell_angle_gamma   36.83758163
_symmetry_Int_Tables_number   1
_chemical_formula_structural   UC
_chemical_formula_sum   'U2 C2'
_cell_volume   96.00340428
_cell_formula_units_Z   2
loop_
 _symmetry_equiv_pos_site_id
 _symmetry_equiv_pos_as_xyz
  1  'x, y, z'
loop_
 _atom_site_type_symbol
 _atom_site_label
 _atom_site_symmetry_multiplicity
 _atom_site_fract_x
 _atom_site_fract_y
 _atom_site_fract_z
 _atom_site_occupancy
  U  U1  1  0.57122111  0.53589296  0.43511739  1.0
  U  U2  1  0.00000000  0.00000000  0.00000000  1.0
  C  C1  1  0.21340954  0.30646619  0.35998222  1.0
  C  C2  1  0.73694074  0.77994299  0.63016075  1.0
