# generated using pymatgen
data_UO3
_symmetry_space_group_name_H-M   'P 1'
_cell_length_a   4.04504013
_cell_length_b   4.37684107
_cell_length_c   3.01753449
_cell_angle_alpha   92.89500427
_cell_angle_beta   94.96605682
_cell_angle_gamma   91.60826111
_symmetry_Int_Tables_number   1
_chemical_formula_structural   UO3
_chemical_formula_sum   'U1 O3'
_cell_volume   53.12720583
_cell_formula_units_Z   1
loop_
 _symmetry_equiv_pos_site_id
 _symmetry_equiv_pos_as_xyz
  1  'x, y, z'
loop_
 _atom_site_type_symbol
 _atom_site_label
 _atom_site_symmetry_multiplicity
 _atom_site_fract_x
 _atom_site_fract_y
 _atom_site_fract_z
 _atom_site_occupancy
  U  U1  1  0.00000000  0.00000000  0.00000000  1.0
  O  O1  1  0.00000000  0.38265079  0.00000000  1.0
  O  O2  1  0.57495892  0.00000000  0.00000000  1.0
  O  O3  1  0.12339780  0.00000000  0.46494883  1.0
