# generated using pymatgen
data_UTaC2
_symmetry_space_group_name_H-M   'P 1'
_cell_length_a   7.99495840
_cell_length_b   7.03696394
_cell_length_c   6.65381622
_cell_angle_alpha   31.56785774
_cell_angle_beta   34.23573685
_cell_angle_gamma   27.55604553
_symmetry_Int_Tables_number   1
_chemical_formula_structural   UTaC2
_chemical_formula_sum   'U1 Ta1 C2'
_cell_volume   86.63482679
_cell_formula_units_Z   1
loop_
 _symmetry_equiv_pos_site_id
 _symmetry_equiv_pos_as_xyz
  1  'x, y, z'
loop_
 _atom_site_type_symbol
 _atom_site_label
 _atom_site_symmetry_multiplicity
 _atom_site_fract_x
 _atom_site_fract_y
 _atom_site_fract_z
 _atom_site_occupancy
  U  U1  1  0.39551574  0.57543993  0.54054040  1.0
  Ta  Ta1  1  0.00000000  0.00000000  0.00000000  1.0
  C  C1  1  0.74459833  0.78091776  0.78716290  1.0
  C  C2  1  0.19359508  0.27360722  0.21489596  1.0
