# generated using pymatgen
data_UTl2O4
_symmetry_space_group_name_H-M   'P 1'
_cell_length_a   4.47862196
_cell_length_b   4.03099060
_cell_length_c   9.41769028
_cell_angle_alpha   108.64794922
_cell_angle_beta   112.94916534
_cell_angle_gamma   96.93848419
_symmetry_Int_Tables_number   1
_chemical_formula_structural   UTl2O4
_chemical_formula_sum   'U1 Tl2 O4'
_cell_volume   142.35162746
_cell_formula_units_Z   1
loop_
 _symmetry_equiv_pos_site_id
 _symmetry_equiv_pos_as_xyz
  1  'x, y, z'
loop_
 _atom_site_type_symbol
 _atom_site_label
 _atom_site_symmetry_multiplicity
 _atom_site_fract_x
 _atom_site_fract_y
 _atom_site_fract_z
 _atom_site_occupancy
  U  U1  1  0.00000000  0.00000000  0.00000000  1.0
  Tl  Tl1  1  0.26998961  0.29115075  0.87432730  1.0
  Tl  Tl2  1  0.66607606  0.70383912  0.37304702  1.0
  O  O1  1  0.12123784  0.15394861  0.23790067  1.0
  O  O2  1  0.84322721  0.94507819  0.75650191  1.0
  O  O3  1  0.00000000  0.42095903  0.93708229  1.0
  O  O4  1  0.51113713  0.00000000  0.96963221  1.0
