# generated using pymatgen
data_V2CrH
_symmetry_space_group_name_H-M   'P 1'
_cell_length_a   1.83372843
_cell_length_b   2.88037133
_cell_length_c   2.29947209
_cell_angle_alpha   56.33799362
_cell_angle_beta   63.44676590
_cell_angle_gamma   71.41856384
_symmetry_Int_Tables_number   1
_chemical_formula_structural   V2CrH
_chemical_formula_sum   'V2 Cr1 H1'
_cell_volume   9.00153110
_cell_formula_units_Z   1
loop_
 _symmetry_equiv_pos_site_id
 _symmetry_equiv_pos_as_xyz
  1  'x, y, z'
loop_
 _atom_site_type_symbol
 _atom_site_label
 _atom_site_symmetry_multiplicity
 _atom_site_fract_x
 _atom_site_fract_y
 _atom_site_fract_z
 _atom_site_occupancy
  V  V1  1  0.00000000  0.00000000  0.00000000  1.0
  V  V2  1  0.57520092  0.66506237  0.38381174  1.0
  Cr  Cr1  1  0.27320528  0.13942754  0.00000000  1.0
  H  H1  1  0.79062045  0.68471563  0.86069781  1.0
