# generated using pymatgen
data_VCo3
_symmetry_space_group_name_H-M   'P 1'
_cell_length_a   2.48499203
_cell_length_b   3.00842261
_cell_length_c   2.11985683
_cell_angle_alpha   85.25176239
_cell_angle_beta   97.55885315
_cell_angle_gamma   108.81268311
_symmetry_Int_Tables_number   1
_chemical_formula_structural   VCo3
_chemical_formula_sum   'V1 Co3'
_cell_volume   14.85710836
_cell_formula_units_Z   1
loop_
 _symmetry_equiv_pos_site_id
 _symmetry_equiv_pos_as_xyz
  1  'x, y, z'
loop_
 _atom_site_type_symbol
 _atom_site_label
 _atom_site_symmetry_multiplicity
 _atom_site_fract_x
 _atom_site_fract_y
 _atom_site_fract_z
 _atom_site_occupancy
  V  V1  1  0.00000000  0.00000000  0.00000000  1.0
  Co  Co1  1  0.66252911  0.68792558  0.00000000  1.0
  Co  Co2  1  0.32695603  0.00000000  0.44244912  1.0
  Co  Co3  1  0.00000000  0.48294690  0.59907377  1.0
