# generated using pymatgen
data_VHF6
_symmetry_space_group_name_H-M   'P 1'
_cell_length_a   4.74829182
_cell_length_b   5.39985890
_cell_length_c   5.34581308
_cell_angle_alpha   64.63470953
_cell_angle_beta   64.62442778
_cell_angle_gamma   67.07467145
_symmetry_Int_Tables_number   1
_chemical_formula_structural   VHF6
_chemical_formula_sum   'V1 H1 F6'
_cell_volume   108.28473823
_cell_formula_units_Z   1
loop_
 _symmetry_equiv_pos_site_id
 _symmetry_equiv_pos_as_xyz
  1  'x, y, z'
loop_
 _atom_site_type_symbol
 _atom_site_label
 _atom_site_symmetry_multiplicity
 _atom_site_fract_x
 _atom_site_fract_y
 _atom_site_fract_z
 _atom_site_occupancy
  V  V0  1  0.49491882  0.45437978  0.49932429  1.0
  H  H1  1  0.92459578  0.17078303  0.79341075  1.0
  F  F2  1  0.73015468  0.67006263  0.43936686  1.0
  F  F3  1  0.36244001  0.67468069  0.19944829  1.0
  F  F4  1  0.26621622  0.18775134  0.63156412  1.0
  F  F5  1  0.83416257  0.22689669  0.32519339  1.0
  F  F6  1  0.18541421  0.59907285  0.77001443  1.0
  F  F7  1  0.69169240  0.18695049  0.86234364  1.0
