# generated using pymatgen
data_XeF2
_symmetry_space_group_name_H-M   'P 1'
_cell_length_a   3.58151921
_cell_length_b   3.58339989
_cell_length_c   5.07938885
_cell_angle_alpha   104.10022340
_cell_angle_beta   114.94605271
_cell_angle_gamma   95.71341366
_symmetry_Int_Tables_number   1
_chemical_formula_structural   XeF2
_chemical_formula_sum   'Xe1 F2'
_cell_volume   55.78878308
_cell_formula_units_Z   1
loop_
 _symmetry_equiv_pos_site_id
 _symmetry_equiv_pos_as_xyz
  1  'x, y, z'
loop_
 _atom_site_type_symbol
 _atom_site_label
 _atom_site_symmetry_multiplicity
 _atom_site_fract_x
 _atom_site_fract_y
 _atom_site_fract_z
 _atom_site_occupancy
  Xe  Xe0  1  0.36509244  0.35604295  0.28361077  1.0
  F  F1  1  0.37566327  0.62284239  0.81354934  1.0
  F  F2  1  0.35154148  0.09355475  0.75263564  1.0
