# generated using pymatgen
data_XeF2
_symmetry_space_group_name_H-M   'P 1'
_cell_length_a   5.38375822
_cell_length_b   3.15008209
_cell_length_c   5.06650704
_cell_angle_alpha   120.25283051
_cell_angle_beta   114.83522490
_cell_angle_gamma   99.80591462
_symmetry_Int_Tables_number   1
_chemical_formula_structural   XeF2
_chemical_formula_sum   'Xe1 F2'
_cell_volume   58.82370752
_cell_formula_units_Z   1
loop_
 _symmetry_equiv_pos_site_id
 _symmetry_equiv_pos_as_xyz
  1  'x, y, z'
loop_
 _atom_site_type_symbol
 _atom_site_label
 _atom_site_symmetry_multiplicity
 _atom_site_fract_x
 _atom_site_fract_y
 _atom_site_fract_z
 _atom_site_occupancy
  Xe  Xe0  1  0.99401278  0.96203406  0.01075479  1.0
  F  F1  1  0.71970423  0.68091934  0.46199855  1.0
  F  F2  1  0.26879299  0.24461113  0.56006525  1.0
