# generated using pymatgen
data_YBi2ClO4
_symmetry_space_group_name_H-M   'P 1'
_cell_length_a   3.78625965
_cell_length_b   4.73521280
_cell_length_c   8.91963100
_cell_angle_alpha   101.27767944
_cell_angle_beta   107.91864014
_cell_angle_gamma   88.14507294
_symmetry_Int_Tables_number   1
_chemical_formula_structural   YBi2ClO4
_chemical_formula_sum   'Y1 Bi2 Cl1 O4'
_cell_volume   149.15655273
_cell_formula_units_Z   1
loop_
 _symmetry_equiv_pos_site_id
 _symmetry_equiv_pos_as_xyz
  1  'x, y, z'
loop_
 _atom_site_type_symbol
 _atom_site_label
 _atom_site_symmetry_multiplicity
 _atom_site_fract_x
 _atom_site_fract_y
 _atom_site_fract_z
 _atom_site_occupancy
  Y  Y1  1  0.00000000  0.00000000  0.00000000  1.0
  Bi  Bi1  1  0.46079341  0.58719856  0.30265164  1.0
  Bi  Bi2  1  0.67687804  0.56786728  0.65916198  1.0
  Cl  Cl1  1  0.00000000  0.00000000  0.42438096  1.0
  O  O1  1  0.28762335  0.00000000  0.84953433  1.0
  O  O2  1  0.00000000  0.58476806  0.77651501  1.0
  O  O3  1  0.42022341  0.00000000  0.00000000  1.0
  O  O4  1  0.13286841  0.19657478  0.22484484  1.0
