# generated using pymatgen
data_YIr3
_symmetry_space_group_name_H-M   'P 1'
_cell_length_a   3.36279655
_cell_length_b   2.78597164
_cell_length_c   2.84745622
_cell_angle_alpha   97.56962585
_cell_angle_beta   87.91763306
_cell_angle_gamma   91.67151642
_symmetry_Int_Tables_number   1
_chemical_formula_structural   YIr3
_chemical_formula_sum   'Y1 Ir3'
_cell_volume   26.41889299
_cell_formula_units_Z   1
loop_
 _symmetry_equiv_pos_site_id
 _symmetry_equiv_pos_as_xyz
  1  'x, y, z'
loop_
 _atom_site_type_symbol
 _atom_site_label
 _atom_site_symmetry_multiplicity
 _atom_site_fract_x
 _atom_site_fract_y
 _atom_site_fract_z
 _atom_site_occupancy
  Y  Y1  1  0.00000000  0.00000000  0.00000000  1.0
  Ir  Ir1  1  0.55386090  0.31320620  0.00000000  1.0
  Ir  Ir2  1  0.38590816  0.00000000  0.53535378  1.0
  Ir  Ir3  1  0.15285033  0.60105926  0.63124812  1.0
