# generated using pymatgen
data_YMgAu2
_symmetry_space_group_name_H-M   'P 1'
_cell_length_a   4.49128485
_cell_length_b   4.76974249
_cell_length_c   5.28581762
_cell_angle_alpha   76.93929291
_cell_angle_beta   61.62133789
_cell_angle_gamma   63.74099731
_symmetry_Int_Tables_number   1
_chemical_formula_structural   YMgAu2
_chemical_formula_sum   'Y1 Mg1 Au2'
_cell_volume   89.32756991
_cell_formula_units_Z   1
loop_
 _symmetry_equiv_pos_site_id
 _symmetry_equiv_pos_as_xyz
  1  'x, y, z'
loop_
 _atom_site_type_symbol
 _atom_site_label
 _atom_site_symmetry_multiplicity
 _atom_site_fract_x
 _atom_site_fract_y
 _atom_site_fract_z
 _atom_site_occupancy
  Y  Y1  1  0.74288648  0.83789670  0.72329557  1.0
  Mg  Mg1  1  0.28159407  0.19659984  0.20475060  1.0
  Au  Au1  1  0.00000000  0.00000000  0.00000000  1.0
  Au  Au2  1  0.34376317  0.48341066  0.69097143  1.0
