# generated using pymatgen
data_YPaO4
_symmetry_space_group_name_H-M   'P 1'
_cell_length_a   5.89397597
_cell_length_b   8.70140456
_cell_length_c   5.95125598
_cell_angle_alpha   132.57469854
_cell_angle_beta   134.73902828
_cell_angle_gamma   67.68927600
_symmetry_Int_Tables_number   1
_chemical_formula_structural   YPaO4
_chemical_formula_sum   'Y2 Pa2 O8'
_cell_volume   156.90610909
_cell_formula_units_Z   2
loop_
 _symmetry_equiv_pos_site_id
 _symmetry_equiv_pos_as_xyz
  1  'x, y, z'
loop_
 _atom_site_type_symbol
 _atom_site_label
 _atom_site_symmetry_multiplicity
 _atom_site_fract_x
 _atom_site_fract_y
 _atom_site_fract_z
 _atom_site_occupancy
  Y  Y0  1  0.61238480  0.72660033  0.48633824  1.0
  Y  Y1  1  0.67196354  0.43171556  0.50263568  1.0
  Pa  Pa2  1  0.10908874  0.90988480  0.09217835  1.0
  Pa  Pa3  1  0.16813738  0.69738741  0.30321700  1.0
  O  O4  1  0.71427637  0.28137531  0.97384506  1.0
  O  O5  1  0.95396045  0.54770896  0.89974782  1.0
  O  O6  1  0.12896918  0.94026446  0.37792419  1.0
  O  O7  1  0.52235531  0.00985325  0.90673610  1.0
  O  O8  1  0.89734301  0.54115174  0.09424851  1.0
  O  O9  1  0.05471869  0.05713754  0.15817338  1.0
  O  O10  1  0.29839487  0.72585292  0.91982769  1.0
  O  O11  1  0.86762719  0.76689628  0.20474842  1.0
