# generated using pymatgen
data_ZnSe
_symmetry_space_group_name_H-M   'P 1'
_cell_length_a   5.13533449
_cell_length_b   4.34691381
_cell_length_c   4.46485281
_cell_angle_alpha   49.70119858
_cell_angle_beta   55.58354950
_cell_angle_gamma   49.67823410
_symmetry_Int_Tables_number   1
_chemical_formula_structural   ZnSe
_chemical_formula_sum   'Zn1 Se1'
_cell_volume   56.08126325
_cell_formula_units_Z   1
loop_
 _symmetry_equiv_pos_site_id
 _symmetry_equiv_pos_as_xyz
  1  'x, y, z'
loop_
 _atom_site_type_symbol
 _atom_site_label
 _atom_site_symmetry_multiplicity
 _atom_site_fract_x
 _atom_site_fract_y
 _atom_site_fract_z
 _atom_site_occupancy
  Zn  Zn1  1  0.00000000  0.00000000  0.00000000  1.0
  Se  Se1  1  0.24258399  0.35819939  0.30567157  1.0
