# generated using pymatgen
data_ZrAs
_symmetry_space_group_name_H-M   'P 1'
_cell_length_a   5.28884268
_cell_length_b   4.01503086
_cell_length_c   12.63948441
_cell_angle_alpha   96.37306976
_cell_angle_beta   93.48699951
_cell_angle_gamma   109.29503632
_symmetry_Int_Tables_number   1
_chemical_formula_structural   ZrAs
_chemical_formula_sum   'Zr4 As4'
_cell_volume   250.39250428
_cell_formula_units_Z   4
loop_
 _symmetry_equiv_pos_site_id
 _symmetry_equiv_pos_as_xyz
  1  'x, y, z'
loop_
 _atom_site_type_symbol
 _atom_site_label
 _atom_site_symmetry_multiplicity
 _atom_site_fract_x
 _atom_site_fract_y
 _atom_site_fract_z
 _atom_site_occupancy
  Zr  Zr1  1  0.33987007  0.48040584  0.11107635  1.0
  Zr  Zr2  1  0.57447511  0.37863708  0.61372519  1.0
  Zr  Zr3  1  0.70666838  0.54695672  0.72994947  1.0
  Zr  Zr4  1  0.32367349  0.50491887  0.37326711  1.0
  As  As1  1  0.00000000  0.00000000  0.00000000  1.0
  As  As2  1  0.14689302  0.00000000  0.43905804  1.0
  As  As3  1  0.34003466  0.73521638  0.65977806  1.0
  As  As4  1  0.68111539  0.49269116  0.23327211  1.0
