# generated using pymatgen
data_ZrB12
_symmetry_space_group_name_H-M   'P 1'
_cell_length_a   3.96886849
_cell_length_b   7.93000269
_cell_length_c   4.80478191
_cell_angle_alpha   66.54460907
_cell_angle_beta   69.21530914
_cell_angle_gamma   75.44207001
_symmetry_Int_Tables_number   1
_chemical_formula_structural   ZrB12
_chemical_formula_sum   'Zr1 B12'
_cell_volume   128.62458170
_cell_formula_units_Z   1
loop_
 _symmetry_equiv_pos_site_id
 _symmetry_equiv_pos_as_xyz
  1  'x, y, z'
loop_
 _atom_site_type_symbol
 _atom_site_label
 _atom_site_symmetry_multiplicity
 _atom_site_fract_x
 _atom_site_fract_y
 _atom_site_fract_z
 _atom_site_occupancy
  Zr  Zr1  1  0.16251853  0.11639270  0.00000000  1.0
  B  B1  1  0.16969532  0.48856091  0.44090492  1.0
  B  B2  1  0.81627369  0.44159696  0.62128729  1.0
  B  B3  1  0.27818722  0.52498376  0.74383730  1.0
  B  B4  1  0.87784028  0.27351880  0.65361291  1.0
  B  B5  1  0.65722477  0.90118569  0.19039005  1.0
  B  B6  1  0.58864301  0.24974862  0.95907474  1.0
  B  B7  1  0.37356138  0.70626622  0.44680929  1.0
  B  B8  1  0.90428531  0.28911996  0.26371488  1.0
  B  B9  1  0.14205639  0.86068755  0.60201895  1.0
  B  B10  1  0.49775192  0.24588928  0.19779402  1.0
  B  B11  1  0.18795392  0.75532448  0.74805820  1.0
  B  B12  1  0.52987665  0.77692384  0.13799471  1.0
