# generated using pymatgen
data_ZrB11
_symmetry_space_group_name_H-M   'P 1'
_cell_length_a   3.64770842
_cell_length_b   4.47050953
_cell_length_c   5.49517965
_cell_angle_alpha   51.21653748
_cell_angle_beta   46.17206573
_cell_angle_gamma   48.41596985
_symmetry_Int_Tables_number   1
_chemical_formula_structural   ZrB11
_chemical_formula_sum   'Zr1 B11'
_cell_volume   45.98801430
_cell_formula_units_Z   1
loop_
 _symmetry_equiv_pos_site_id
 _symmetry_equiv_pos_as_xyz
  1  'x, y, z'
loop_
 _atom_site_type_symbol
 _atom_site_label
 _atom_site_symmetry_multiplicity
 _atom_site_fract_x
 _atom_site_fract_y
 _atom_site_fract_z
 _atom_site_occupancy
  Zr  Zr1  1  0.00000000  0.00000000  0.00000000  1.0
  B  B1  1  0.15027505  0.74652833  0.35819715  1.0
  B  B2  1  0.88046300  0.75344443  0.22939631  1.0
  B  B3  1  0.30497819  0.18016732  0.75016707  1.0
  B  B4  1  0.91481709  0.00000000  0.45433396  1.0
  B  B5  1  0.67112339  0.69570553  0.00000000  1.0
  B  B6  1  0.66318625  0.00000000  0.86966097  1.0
  B  B7  1  0.52365762  0.83300829  0.45986530  1.0
  B  B8  1  0.85357463  0.80662179  0.33837801  1.0
  B  B9  1  0.31216142  0.92852342  0.45326456  1.0
  B  B10  1  0.44930005  0.25037271  0.56876594  1.0
  B  B11  1  0.00000000  0.38484332  0.92161226  1.0
