# generated using pymatgen
data_ZrB2
_symmetry_space_group_name_H-M   'P 1'
_cell_length_a   2.40783310
_cell_length_b   6.69667149
_cell_length_c   3.15417790
_cell_angle_alpha   91.55690002
_cell_angle_beta   85.00435638
_cell_angle_gamma   120.32905579
_symmetry_Int_Tables_number   1
_chemical_formula_structural   ZrB2
_chemical_formula_sum   'Zr1 B2'
_cell_volume   43.72368654
_cell_formula_units_Z   1
loop_
 _symmetry_equiv_pos_site_id
 _symmetry_equiv_pos_as_xyz
  1  'x, y, z'
loop_
 _atom_site_type_symbol
 _atom_site_label
 _atom_site_symmetry_multiplicity
 _atom_site_fract_x
 _atom_site_fract_y
 _atom_site_fract_z
 _atom_site_occupancy
  Zr  Zr1  1  0.00000000  0.00000000  0.00000000  1.0
  B  B1  1  0.17471740  0.80130774  0.44732383  1.0
  B  B2  1  0.65193176  0.37393081  0.40399170  1.0
