# generated using pymatgen
data_ZrBr
_symmetry_space_group_name_H-M   'P 1'
_cell_length_a   10.63891029
_cell_length_b   8.95441341
_cell_length_c   11.55500698
_cell_angle_alpha   14.17166042
_cell_angle_beta   15.77641201
_cell_angle_gamma   26.73886871
_symmetry_Int_Tables_number   1
_chemical_formula_structural   ZrBr
_chemical_formula_sum   'Zr2 Br2'
_cell_volume   58.58790480
_cell_formula_units_Z   2
loop_
 _symmetry_equiv_pos_site_id
 _symmetry_equiv_pos_as_xyz
  1  'x, y, z'
loop_
 _atom_site_type_symbol
 _atom_site_label
 _atom_site_symmetry_multiplicity
 _atom_site_fract_x
 _atom_site_fract_y
 _atom_site_fract_z
 _atom_site_occupancy
  Zr  Zr1  1  0.40575576  0.28972077  0.21786192  1.0
  Zr  Zr2  1  0.83366579  0.78905773  0.79533154  1.0
  Br  Br1  1  0.55457509  0.49024051  0.51000667  1.0
  Br  Br2  1  0.61595511  0.60961354  0.65255344  1.0
