# generated using pymatgen
data_ZrCuSiAs
_symmetry_space_group_name_H-M   'P 1'
_cell_length_a   4.36136627
_cell_length_b   5.71766281
_cell_length_c   8.60929298
_cell_angle_alpha   94.94754028
_cell_angle_beta   94.20354462
_cell_angle_gamma   82.02510071
_symmetry_Int_Tables_number   1
_chemical_formula_structural   ZrCuSiAs
_chemical_formula_sum   'Zr2 Cu2 Si2 As2'
_cell_volume   211.41027939
_cell_formula_units_Z   2
loop_
 _symmetry_equiv_pos_site_id
 _symmetry_equiv_pos_as_xyz
  1  'x, y, z'
loop_
 _atom_site_type_symbol
 _atom_site_label
 _atom_site_symmetry_multiplicity
 _atom_site_fract_x
 _atom_site_fract_y
 _atom_site_fract_z
 _atom_site_occupancy
  Zr  Zr1  1  0.16953379  0.77590477  0.50467134  1.0
  Zr  Zr2  1  0.31904429  0.00000000  0.10045305  1.0
  Cu  Cu1  1  0.00000000  0.00000000  0.41092491  1.0
  Cu  Cu2  1  0.60308677  0.57541907  0.54275262  1.0
  Si  Si1  1  0.33419561  0.30576131  0.00000000  1.0
  Si  Si2  1  0.00000000  0.00000000  0.00000000  1.0
  As  As1  1  0.00000000  0.35308009  0.19096294  1.0
  As  As2  1  0.43852940  0.00000000  0.34940243  1.0
