# generated using pymatgen
data_ZrHO3
_symmetry_space_group_name_H-M   'P 1'
_cell_length_a   5.77444246
_cell_length_b   4.08986967
_cell_length_c   5.72818522
_cell_angle_alpha   115.38003625
_cell_angle_beta   92.97391493
_cell_angle_gamma   111.02912720
_symmetry_Int_Tables_number   1
_chemical_formula_structural   ZrHO3
_chemical_formula_sum   'Zr2 H2 O6'
_cell_volume   110.63842658
_cell_formula_units_Z   2
loop_
 _symmetry_equiv_pos_site_id
 _symmetry_equiv_pos_as_xyz
  1  'x, y, z'
loop_
 _atom_site_type_symbol
 _atom_site_label
 _atom_site_symmetry_multiplicity
 _atom_site_fract_x
 _atom_site_fract_y
 _atom_site_fract_z
 _atom_site_occupancy
  Zr  Zr0  1  0.18352554  0.17690550  0.45952457  1.0
  Zr  Zr1  1  0.84417466  0.19395015  0.02095663  1.0
  H  H2  1  0.66725309  0.73328584  0.31699066  1.0
  H  H3  1  0.10624512  0.76110020  0.90601573  1.0
  O  O4  1  0.97044169  0.28607112  0.74274136  1.0
  O  O5  1  0.54985690  0.59778577  0.73998911  1.0
  O  O6  1  0.55831898  0.44204008  0.45593738  1.0
  O  O7  1  0.16737106  0.04831852  0.04259264  1.0
  O  O8  1  0.11116254  0.61203744  0.39144511  1.0
  O  O9  1  0.77452391  0.76468111  0.18925428  1.0
