# generated using pymatgen
data_ZrInNi2
_symmetry_space_group_name_H-M   'P 1'
_cell_length_a   4.97239590
_cell_length_b   4.93139648
_cell_length_c   5.08959532
_cell_angle_alpha   56.95489883
_cell_angle_beta   52.00248718
_cell_angle_gamma   61.49510956
_symmetry_Int_Tables_number   1
_chemical_formula_structural   ZrInNi2
_chemical_formula_sum   'Zr1 In1 Ni2'
_cell_volume   80.52490608
_cell_formula_units_Z   1
loop_
 _symmetry_equiv_pos_site_id
 _symmetry_equiv_pos_as_xyz
  1  'x, y, z'
loop_
 _atom_site_type_symbol
 _atom_site_label
 _atom_site_symmetry_multiplicity
 _atom_site_fract_x
 _atom_site_fract_y
 _atom_site_fract_z
 _atom_site_occupancy
  Zr  Zr1  1  0.45034102  0.41649565  0.51910192  1.0
  In  In1  1  0.00000000  0.00000000  0.00000000  1.0
  Ni  Ni1  1  0.70843679  0.62591171  0.71036386  1.0
  Ni  Ni2  1  0.33214638  0.42073160  0.24204084  1.0
