# generated using pymatgen
data_ZrPaOs2
_symmetry_space_group_name_H-M   'P 1'
_cell_length_a   4.03471851
_cell_length_b   4.71780396
_cell_length_c   5.18615818
_cell_angle_alpha   66.76491547
_cell_angle_beta   66.96968842
_cell_angle_gamma   66.46744537
_symmetry_Int_Tables_number   1
_chemical_formula_structural   ZrPaOs2
_chemical_formula_sum   'Zr1 Pa1 Os2'
_cell_volume   79.90367835
_cell_formula_units_Z   1
loop_
 _symmetry_equiv_pos_site_id
 _symmetry_equiv_pos_as_xyz
  1  'x, y, z'
loop_
 _atom_site_type_symbol
 _atom_site_label
 _atom_site_symmetry_multiplicity
 _atom_site_fract_x
 _atom_site_fract_y
 _atom_site_fract_z
 _atom_site_occupancy
  Zr  Zr1  1  0.70214194  0.62922102  0.76811635  1.0
  Pa  Pa1  1  0.17167285  0.21025050  0.23996672  1.0
  Os  Os1  1  0.00000000  0.00000000  0.00000000  1.0
  Os  Os2  1  0.55509353  0.57113922  0.64126515  1.0
