# generated using pymatgen
data_ZrSO
_symmetry_space_group_name_H-M   'P 1'
_cell_length_a   6.06816339
_cell_length_b   5.92295837
_cell_length_c   7.36193609
_cell_angle_alpha   86.50389099
_cell_angle_beta   96.57513428
_cell_angle_gamma   86.87763977
_symmetry_Int_Tables_number   1
_chemical_formula_structural   ZrSO
_chemical_formula_sum   'Zr4 S4 O4'
_cell_volume   261.86496727
_cell_formula_units_Z   4
loop_
 _symmetry_equiv_pos_site_id
 _symmetry_equiv_pos_as_xyz
  1  'x, y, z'
loop_
 _atom_site_type_symbol
 _atom_site_label
 _atom_site_symmetry_multiplicity
 _atom_site_fract_x
 _atom_site_fract_y
 _atom_site_fract_z
 _atom_site_occupancy
  Zr  Zr1  1  0.85554290  0.71719134  0.37841672  1.0
  Zr  Zr2  1  0.60000366  0.56471348  0.93450147  1.0
  Zr  Zr3  1  0.57592463  0.94136584  0.53770536  1.0
  Zr  Zr4  1  0.12641227  0.00000000  0.16866958  1.0
  S  S1  1  0.20038345  0.53218752  0.89334321  1.0
  S  S2  1  0.61271274  0.21204180  0.79992723  1.0
  S  S3  1  0.65770054  0.77237320  0.28354970  1.0
  S  S4  1  0.10724163  0.18159613  0.00000000  1.0
  O  O1  1  0.20589954  0.81900573  0.24237412  1.0
  O  O2  1  0.90308505  0.30271026  0.10729646  1.0
  O  O3  1  0.60025954  0.67623293  0.78030306  1.0
  O  O4  1  0.29753432  0.32060248  0.85533237  1.0
