# generated using pymatgen
data_Ag2O
_symmetry_space_group_name_H-M   P2_12_12_1
_cell_length_a   3.31521515
_cell_length_b   6.96058729
_cell_length_c   8.42662746
_cell_angle_alpha   90.00000000
_cell_angle_beta   90.00000000
_cell_angle_gamma   90.00000000
_symmetry_Int_Tables_number   19
_chemical_formula_structural   Ag2O
_chemical_formula_sum   'Ag8 O4'
_cell_volume   194.45154429
_cell_formula_units_Z   4
loop_
 _symmetry_equiv_pos_site_id
 _symmetry_equiv_pos_as_xyz
  1  'x, y, z'
  2  '-x+1/2, -y, z+1/2'
  3  'x+1/2, -y+1/2, -z'
  4  '-x, y+1/2, -z+1/2'
loop_
 _atom_site_type_symbol
 _atom_site_label
 _atom_site_symmetry_multiplicity
 _atom_site_fract_x
 _atom_site_fract_y
 _atom_site_fract_z
 _atom_site_occupancy
  Ag  Ag0  4  0.01207047  0.26456254  0.23470334  1
  Ag  Ag1  4  0.02743945  0.45833426  0.54044053  1
  O  O2  4  0.16340774  0.48578458  0.80956002  1
