# generated using pymatgen
data_Ag3PSe4
_symmetry_space_group_name_H-M   Pmn2_1
_cell_length_a   8.18348281
_cell_length_b   7.23880096
_cell_length_c   6.92090502
_cell_angle_alpha   90.00000000
_cell_angle_beta   90.00000000
_cell_angle_gamma   90.00000000
_symmetry_Int_Tables_number   31
_chemical_formula_structural   Ag3PSe4
_chemical_formula_sum   'Ag6 P2 Se8'
_cell_volume   409.98474641
_cell_formula_units_Z   2
loop_
 _symmetry_equiv_pos_site_id
 _symmetry_equiv_pos_as_xyz
  1  'x, y, z'
  2  '-x+1/2, -y, z+1/2'
  3  '-x, y, z'
  4  'x+1/2, -y, z+1/2'
loop_
 _atom_site_type_symbol
 _atom_site_label
 _atom_site_symmetry_multiplicity
 _atom_site_fract_x
 _atom_site_fract_y
 _atom_site_fract_z
 _atom_site_occupancy
  Ag  Ag0  4  0.23340353  0.19156380  0.52240177  1
  Ag  Ag1  2  0.00000000  0.35962055  0.97719572  1
  P  P2  2  0.00000000  0.68393244  0.49946641  1
  Se  Se3  4  0.22685653  0.83727363  0.39776024  1
  Se  Se4  2  0.00000000  0.39713847  0.37094019  1
  Se  Se5  2  0.00000000  0.69623098  0.82535135  1
