# generated using pymatgen
data_AlBr3
_symmetry_space_group_name_H-M   P2_1/c
_cell_length_a   9.41860593
_cell_length_b   6.32768211
_cell_length_c   12.21554869
_cell_angle_alpha   90.00000000
_cell_angle_beta   108.72398156
_cell_angle_gamma   90.00000000
_symmetry_Int_Tables_number   14
_chemical_formula_structural   AlBr3
_chemical_formula_sum   'Al4 Br12'
_cell_volume   689.49177494
_cell_formula_units_Z   4
loop_
 _symmetry_equiv_pos_site_id
 _symmetry_equiv_pos_as_xyz
  1  'x, y, z'
  2  '-x, -y, -z'
  3  '-x, y+1/2, -z+1/2'
  4  'x, -y+1/2, z+1/2'
loop_
 _atom_site_type_symbol
 _atom_site_label
 _atom_site_symmetry_multiplicity
 _atom_site_fract_x
 _atom_site_fract_y
 _atom_site_fract_z
 _atom_site_occupancy
  Al  Al0  4  0.31220555  0.50293067  0.45416601  1
  Br  Br1  4  0.18500070  0.21364899  0.80934098  1
  Br  Br2  4  0.18949446  0.72201622  0.53835448  1
  Br  Br3  4  0.49921509  0.20039248  0.10274075  1
