# generated using pymatgen
data_AlHO2
_symmetry_space_group_name_H-M   Cm
_cell_length_a   6.31727295
_cell_length_b   7.67827239
_cell_length_c   3.20415121
_cell_angle_alpha   90.00000000
_cell_angle_beta   119.20888171
_cell_angle_gamma   90.00000000
_symmetry_Int_Tables_number   8
_chemical_formula_structural   AlHO2
_chemical_formula_sum   'Al4 H4 O8'
_cell_volume   135.65756123
_cell_formula_units_Z   4
loop_
 _symmetry_equiv_pos_site_id
 _symmetry_equiv_pos_as_xyz
  1  'x, y, z'
  2  'x, -y, z'
  3  'x+1/2, y+1/2, z'
  4  'x+1/2, -y+1/2, z'
loop_
 _atom_site_type_symbol
 _atom_site_label
 _atom_site_symmetry_multiplicity
 _atom_site_fract_x
 _atom_site_fract_y
 _atom_site_fract_z
 _atom_site_occupancy
  Al  Al0  4  0.26264966  0.24583539  0.35264748  1
  H  H1  2  0.07428274  0.00000000  0.40051817  1
  H  H2  2  0.43364715  0.50000000  0.78042764  1
  O  O3  4  0.42863616  0.23158368  0.01840777  1
  O  O4  2  0.20713548  0.00000000  0.31695970  1
  O  O5  2  0.31172752  0.50000000  0.43520390  1
