# generated using pymatgen
data_AlI3
_symmetry_space_group_name_H-M   P2_1/m
_cell_length_a   3.88530989
_cell_length_b   14.85860556
_cell_length_c   7.68719410
_cell_angle_alpha   90.00000000
_cell_angle_beta   100.65398810
_cell_angle_gamma   90.00000000
_symmetry_Int_Tables_number   11
_chemical_formula_structural   AlI3
_chemical_formula_sum   'Al2 I6'
_cell_volume   436.13379010
_cell_formula_units_Z   2
loop_
 _symmetry_equiv_pos_site_id
 _symmetry_equiv_pos_as_xyz
  1  'x, y, z'
  2  '-x, -y, -z'
  3  '-x, y+1/2, -z'
  4  'x, -y+1/2, z'
loop_
 _atom_site_type_symbol
 _atom_site_label
 _atom_site_symmetry_multiplicity
 _atom_site_fract_x
 _atom_site_fract_y
 _atom_site_fract_z
 _atom_site_occupancy
  Al  Al0  2  0.38517877  0.25000000  0.38694708  1
  I  I1  4  0.15322391  0.62622755  0.71270805  1
  I  I2  2  0.49318779  0.75000000  0.28190809  1
