# generated using pymatgen
data_As2O3
_symmetry_space_group_name_H-M   P2_1/c
_cell_length_a   4.68549826
_cell_length_b   8.80837803
_cell_length_c   10.17881583
_cell_angle_alpha   90.00000000
_cell_angle_beta   115.77735667
_cell_angle_gamma   90.00000000
_symmetry_Int_Tables_number   14
_chemical_formula_structural   As2O3
_chemical_formula_sum   'As8 O12'
_cell_volume   378.29292343
_cell_formula_units_Z   4
loop_
 _symmetry_equiv_pos_site_id
 _symmetry_equiv_pos_as_xyz
  1  'x, y, z'
  2  '-x, -y, -z'
  3  '-x, y+1/2, -z+1/2'
  4  'x, -y+1/2, z+1/2'
loop_
 _atom_site_type_symbol
 _atom_site_label
 _atom_site_symmetry_multiplicity
 _atom_site_fract_x
 _atom_site_fract_y
 _atom_site_fract_z
 _atom_site_occupancy
  As  As0  4  0.22485608  0.66353197  0.94037910  1
  As  As1  4  0.41755586  0.13687777  0.20477334  1
  O  O2  4  0.19142154  0.19704314  0.60325544  1
  O  O3  4  0.26886368  0.66225674  0.35381791  1
  O  O4  4  0.39280692  0.74253540  0.12348898  1
