# generated using pymatgen
data_As2S5
_symmetry_space_group_name_H-M   P2_1/m
_cell_length_a   3.51673021
_cell_length_b   18.90676545
_cell_length_c   6.91154771
_cell_angle_alpha   90.00000000
_cell_angle_beta   96.54831701
_cell_angle_gamma   90.00000000
_symmetry_Int_Tables_number   11
_chemical_formula_structural   As2S5
_chemical_formula_sum   'As4 S10'
_cell_volume   456.55068191
_cell_formula_units_Z   2
loop_
 _symmetry_equiv_pos_site_id
 _symmetry_equiv_pos_as_xyz
  1  'x, y, z'
  2  '-x, -y, -z'
  3  '-x, y+1/2, -z'
  4  'x, -y+1/2, z'
loop_
 _atom_site_type_symbol
 _atom_site_label
 _atom_site_symmetry_multiplicity
 _atom_site_fract_x
 _atom_site_fract_y
 _atom_site_fract_z
 _atom_site_occupancy
  As  As0  4  0.26634497  0.14918825  0.35955112  1
  S  S1  4  0.22045792  0.59331307  0.48115964  1
  S  S2  4  0.25904853  0.14947197  0.06395855  1
  S  S3  2  0.15122659  0.25000000  0.52644216  1
