# generated using pymatgen
data_Ba2DyRuO6
_symmetry_space_group_name_H-M   C2/m
_cell_length_a   10.32163522
_cell_length_b   5.95512516
_cell_length_c   5.96481580
_cell_angle_alpha   90.00000000
_cell_angle_beta   125.32124590
_cell_angle_gamma   90.00000000
_symmetry_Int_Tables_number   12
_chemical_formula_structural   Ba2DyRuO6
_chemical_formula_sum   'Ba4 Dy2 Ru2 O12'
_cell_volume   299.14775608
_cell_formula_units_Z   2
loop_
 _symmetry_equiv_pos_site_id
 _symmetry_equiv_pos_as_xyz
  1  'x, y, z'
  2  '-x, -y, -z'
  3  '-x, y, -z'
  4  'x, -y, z'
  5  'x+1/2, y+1/2, z'
  6  '-x+1/2, -y+1/2, -z'
  7  '-x+1/2, y+1/2, -z'
  8  'x+1/2, -y+1/2, z'
loop_
 _atom_site_type_symbol
 _atom_site_label
 _atom_site_symmetry_multiplicity
 _atom_site_fract_x
 _atom_site_fract_y
 _atom_site_fract_z
 _atom_site_occupancy
  Ba  Ba0  4  0.24979606  0.50000000  0.25001362  1
  Dy  Dy1  2  0.00000000  0.50000000  0.50000000  1
  Ru  Ru2  2  0.00000000  0.00000000  0.00000000  1
  O  O3  8  0.01020409  0.23464175  0.24442736  1
  O  O4  4  0.23436985  0.00000000  0.21418163  1
