# generated using pymatgen
data_Ba2PrRuO6
_symmetry_space_group_name_H-M   C2/m
_cell_length_a   10.54162129
_cell_length_b   6.09136478
_cell_length_c   6.08731167
_cell_angle_alpha   90.00000000
_cell_angle_beta   125.24215186
_cell_angle_gamma   90.00000000
_symmetry_Int_Tables_number   12
_chemical_formula_structural   Ba2PrRuO6
_chemical_formula_sum   'Ba4 Pr2 Ru2 O12'
_cell_volume   319.24276771
_cell_formula_units_Z   2
loop_
 _symmetry_equiv_pos_site_id
 _symmetry_equiv_pos_as_xyz
  1  'x, y, z'
  2  '-x, -y, -z'
  3  '-x, y, -z'
  4  'x, -y, z'
  5  'x+1/2, y+1/2, z'
  6  '-x+1/2, -y+1/2, -z'
  7  '-x+1/2, y+1/2, -z'
  8  'x+1/2, -y+1/2, z'
loop_
 _atom_site_type_symbol
 _atom_site_label
 _atom_site_symmetry_multiplicity
 _atom_site_fract_x
 _atom_site_fract_y
 _atom_site_fract_z
 _atom_site_occupancy
  Ba  Ba0  4  0.24961586  0.00000000  0.74991545  1
  Pr  Pr1  2  0.00000000  0.50000000  0.50000000  1
  Ru  Ru2  2  0.00000000  0.00000000  0.00000000  1
  O  O3  8  0.00467047  0.22857868  0.23359417  1
  O  O4  4  0.22872988  0.00000000  0.21910703  1
