# generated using pymatgen
data_Ba5Sm8Co4O21
_symmetry_space_group_name_H-M   I4/m
_cell_length_a   14.09350970
_cell_length_b   14.09350970
_cell_length_c   5.84489669
_cell_angle_alpha   90.00000000
_cell_angle_beta   90.00000000
_cell_angle_gamma   90.00000000
_symmetry_Int_Tables_number   87
_chemical_formula_structural   Ba5Sm8Co4O21
_chemical_formula_sum   'Ba10 Sm16 Co8 O42'
_cell_volume   1160.95438658
_cell_formula_units_Z   2
loop_
 _symmetry_equiv_pos_site_id
 _symmetry_equiv_pos_as_xyz
  1  'x, y, z'
  2  '-x, -y, -z'
  3  '-y, x, z'
  4  'y, -x, -z'
  5  '-x, -y, z'
  6  'x, y, -z'
  7  'y, -x, z'
  8  '-y, x, -z'
  9  'x+1/2, y+1/2, z+1/2'
  10  '-x+1/2, -y+1/2, -z+1/2'
  11  '-y+1/2, x+1/2, z+1/2'
  12  'y+1/2, -x+1/2, -z+1/2'
  13  '-x+1/2, -y+1/2, z+1/2'
  14  'x+1/2, y+1/2, -z+1/2'
  15  'y+1/2, -x+1/2, z+1/2'
  16  '-y+1/2, x+1/2, -z+1/2'
loop_
 _atom_site_type_symbol
 _atom_site_label
 _atom_site_symmetry_multiplicity
 _atom_site_fract_x
 _atom_site_fract_y
 _atom_site_fract_z
 _atom_site_occupancy
  Ba  Ba0  8  0.03378950  0.63759298  0.50000000  1
  Ba  Ba1  2  0.00000000  0.00000000  0.00000000  1
  Sm  Sm2  8  0.08910613  0.14350801  0.50000000  1
  Sm  Sm3  8  0.16580847  0.75199687  0.00000000  1
  Co  Co4  8  0.04152451  0.25092535  0.00000000  1
  O  O5  16  0.04593262  0.82009055  0.24747449  1
  O  O6  16  0.14619842  0.25952509  0.24252078  1
  O  O7  8  0.03422909  0.62755060  0.00000000  1
  O  O8  2  0.00000000  0.00000000  0.50000000  1
