# generated using pymatgen
data_Ba5Sm8Mg4O21
_symmetry_space_group_name_H-M   I4/m
_cell_length_a   14.14829670
_cell_length_b   14.14829670
_cell_length_c   5.83372311
_cell_angle_alpha   90.00000000
_cell_angle_beta   90.00000000
_cell_angle_gamma   90.00000000
_symmetry_Int_Tables_number   87
_chemical_formula_structural   Ba5Sm8Mg4O21
_chemical_formula_sum   'Ba10 Sm16 Mg8 O42'
_cell_volume   1167.76143769
_cell_formula_units_Z   2
loop_
 _symmetry_equiv_pos_site_id
 _symmetry_equiv_pos_as_xyz
  1  'x, y, z'
  2  '-x, -y, -z'
  3  '-y, x, z'
  4  'y, -x, -z'
  5  '-x, -y, z'
  6  'x, y, -z'
  7  'y, -x, z'
  8  '-y, x, -z'
  9  'x+1/2, y+1/2, z+1/2'
  10  '-x+1/2, -y+1/2, -z+1/2'
  11  '-y+1/2, x+1/2, z+1/2'
  12  'y+1/2, -x+1/2, -z+1/2'
  13  '-x+1/2, -y+1/2, z+1/2'
  14  'x+1/2, y+1/2, -z+1/2'
  15  'y+1/2, -x+1/2, z+1/2'
  16  '-y+1/2, x+1/2, -z+1/2'
loop_
 _atom_site_type_symbol
 _atom_site_label
 _atom_site_symmetry_multiplicity
 _atom_site_fract_x
 _atom_site_fract_y
 _atom_site_fract_z
 _atom_site_occupancy
  Ba  Ba0  8  0.03129958  0.63696540  0.50000000  1
  Ba  Ba1  2  0.00000000  0.00000000  0.00000000  1
  Sm  Sm2  8  0.08972435  0.14207675  0.50000000  1
  Sm  Sm3  8  0.16838050  0.75017182  0.00000000  1
  Mg  Mg4  8  0.04035655  0.25080908  0.00000000  1
  O  O5  16  0.04443859  0.82022230  0.24432341  1
  O  O6  16  0.14599813  0.25791963  0.24208085  1
  O  O7  8  0.03263339  0.62752160  0.00000000  1
  O  O8  2  0.00000000  0.00000000  0.50000000  1
