# generated using pymatgen
data_Ba5Y8Mn4O21
_symmetry_space_group_name_H-M   I4/m
_cell_length_a   14.01097306
_cell_length_b   14.01097306
_cell_length_c   5.79585692
_cell_angle_alpha   90.00000000
_cell_angle_beta   90.00000000
_cell_angle_gamma   90.00000000
_symmetry_Int_Tables_number   87
_chemical_formula_structural   Ba5Y8Mn4O21
_chemical_formula_sum   'Ba10 Y16 Mn8 O42'
_cell_volume   1137.76940745
_cell_formula_units_Z   2
loop_
 _symmetry_equiv_pos_site_id
 _symmetry_equiv_pos_as_xyz
  1  'x, y, z'
  2  '-x, -y, -z'
  3  '-y, x, z'
  4  'y, -x, -z'
  5  '-x, -y, z'
  6  'x, y, -z'
  7  'y, -x, z'
  8  '-y, x, -z'
  9  'x+1/2, y+1/2, z+1/2'
  10  '-x+1/2, -y+1/2, -z+1/2'
  11  '-y+1/2, x+1/2, z+1/2'
  12  'y+1/2, -x+1/2, -z+1/2'
  13  '-x+1/2, -y+1/2, z+1/2'
  14  'x+1/2, y+1/2, -z+1/2'
  15  'y+1/2, -x+1/2, z+1/2'
  16  '-y+1/2, x+1/2, -z+1/2'
loop_
 _atom_site_type_symbol
 _atom_site_label
 _atom_site_symmetry_multiplicity
 _atom_site_fract_x
 _atom_site_fract_y
 _atom_site_fract_z
 _atom_site_occupancy
  Ba  Ba0  8  0.03355242  0.36079361  0.50000000  1
  Ba  Ba1  2  0.00000000  0.00000000  0.00000000  1
  Y  Y2  8  0.08991563  0.85932655  0.50000000  1
  Y  Y3  8  0.17017241  0.24839589  0.00000000  1
  Mn  Mn4  8  0.04023222  0.75151620  0.00000000  1
  O  O5  16  0.04868802  0.17752634  0.25140172  1
  O  O6  16  0.14953340  0.74385610  0.25174446  1
  O  O7  8  0.03801145  0.37331207  0.00000000  1
  O  O8  2  0.00000000  0.00000000  0.50000000  1
