# generated using pymatgen
data_BaLiBO3
_symmetry_space_group_name_H-M   P2_1/c
_cell_length_a   6.59716347
_cell_length_b   7.12664579
_cell_length_c   7.64442991
_cell_angle_alpha   90.00000000
_cell_angle_beta   118.86615369
_cell_angle_gamma   90.00000000
_symmetry_Int_Tables_number   14
_chemical_formula_structural   BaLiBO3
_chemical_formula_sum   'Ba4 Li4 B4 O12'
_cell_volume   314.75134924
_cell_formula_units_Z   4
loop_
 _symmetry_equiv_pos_site_id
 _symmetry_equiv_pos_as_xyz
  1  'x, y, z'
  2  '-x, -y, -z'
  3  '-x, y+1/2, -z+1/2'
  4  'x, -y+1/2, z+1/2'
loop_
 _atom_site_type_symbol
 _atom_site_label
 _atom_site_symmetry_multiplicity
 _atom_site_fract_x
 _atom_site_fract_y
 _atom_site_fract_z
 _atom_site_occupancy
  Ba  Ba0  4  0.32468213  0.63742929  0.15774416  1
  Li  Li1  4  0.09475237  0.07601964  0.19633704  1
  B  B2  4  0.21421001  0.15827116  0.91912849  1
  O  O3  4  0.02164172  0.15318147  0.72747691  1
  O  O4  4  0.25505454  0.00445470  0.04401296  1
  O  O5  4  0.35891973  0.18651047  0.47710889  1
