# generated using pymatgen
data_BaLu2ZnO5
_symmetry_space_group_name_H-M   Pnma
_cell_length_a   12.21669996
_cell_length_b   5.66864730
_cell_length_c   7.01697741
_cell_angle_alpha   90.00000000
_cell_angle_beta   90.00000000
_cell_angle_gamma   90.00000000
_symmetry_Int_Tables_number   62
_chemical_formula_structural   BaLu2ZnO5
_chemical_formula_sum   'Ba4 Lu8 Zn4 O20'
_cell_volume   485.94086507
_cell_formula_units_Z   4
loop_
 _symmetry_equiv_pos_site_id
 _symmetry_equiv_pos_as_xyz
  1  'x, y, z'
  2  '-x, -y, -z'
  3  '-x+1/2, -y, z+1/2'
  4  'x+1/2, y, -z+1/2'
  5  'x+1/2, -y+1/2, -z+1/2'
  6  '-x+1/2, y+1/2, z+1/2'
  7  '-x, y+1/2, -z'
  8  'x, -y+1/2, z'
loop_
 _atom_site_type_symbol
 _atom_site_label
 _atom_site_symmetry_multiplicity
 _atom_site_fract_x
 _atom_site_fract_y
 _atom_site_fract_z
 _atom_site_occupancy
  Ba  Ba0  4  0.10243640  0.75000000  0.92247795  1
  Lu  Lu1  4  0.07425837  0.25000000  0.59984561  1
  Lu  Lu2  4  0.20819484  0.75000000  0.38157836  1
  Zn  Zn3  4  0.15020579  0.25000000  0.19230787  1
  O  O4  8  0.06637488  0.50182602  0.33997155  1
  O  O5  8  0.22410646  0.00182128  0.63841646  1
  O  O6  4  0.10241684  0.25000000  0.91934974  1
