# generated using pymatgen
data_BaSm2MgO5
_symmetry_space_group_name_H-M   Pnma
_cell_length_a   12.64798826
_cell_length_b   5.84062675
_cell_length_c   7.30200528
_cell_angle_alpha   90.00000000
_cell_angle_beta   90.00000000
_cell_angle_gamma   90.00000000
_symmetry_Int_Tables_number   62
_chemical_formula_structural   BaSm2MgO5
_chemical_formula_sum   'Ba4 Sm8 Mg4 O20'
_cell_volume   539.41503793
_cell_formula_units_Z   4
loop_
 _symmetry_equiv_pos_site_id
 _symmetry_equiv_pos_as_xyz
  1  'x, y, z'
  2  '-x, -y, -z'
  3  '-x+1/2, -y, z+1/2'
  4  'x+1/2, y, -z+1/2'
  5  'x+1/2, -y+1/2, -z+1/2'
  6  '-x+1/2, y+1/2, z+1/2'
  7  '-x, y+1/2, -z'
  8  'x, -y+1/2, z'
loop_
 _atom_site_type_symbol
 _atom_site_label
 _atom_site_symmetry_multiplicity
 _atom_site_fract_x
 _atom_site_fract_y
 _atom_site_fract_z
 _atom_site_occupancy
  Ba  Ba0  4  0.10016200  0.25000000  0.07543974  1
  Sm  Sm1  4  0.07333917  0.75000000  0.39366367  1
  Sm  Sm2  4  0.20690537  0.25000000  0.61803199  1
  Mg  Mg3  4  0.15089779  0.75000000  0.80733947  1
  O  O4  8  0.06739842  0.50820500  0.66570866  1
  O  O5  8  0.22635805  0.00661585  0.34988006  1
  O  O6  4  0.09878501  0.75000000  0.06530550  1
