# generated using pymatgen
data_Be2SiO4
_symmetry_space_group_name_H-M   Pnma
_cell_length_a   9.63893701
_cell_length_b   5.70849412
_cell_length_c   4.57363682
_cell_angle_alpha   90.00000000
_cell_angle_beta   90.00000000
_cell_angle_gamma   90.00000000
_symmetry_Int_Tables_number   62
_chemical_formula_structural   Be2SiO4
_chemical_formula_sum   'Be8 Si4 O16'
_cell_volume   251.65894738
_cell_formula_units_Z   4
loop_
 _symmetry_equiv_pos_site_id
 _symmetry_equiv_pos_as_xyz
  1  'x, y, z'
  2  '-x, -y, -z'
  3  '-x+1/2, -y, z+1/2'
  4  'x+1/2, y, -z+1/2'
  5  'x+1/2, -y+1/2, -z+1/2'
  6  '-x+1/2, y+1/2, z+1/2'
  7  '-x, y+1/2, -z'
  8  'x, -y+1/2, z'
loop_
 _atom_site_type_symbol
 _atom_site_label
 _atom_site_symmetry_multiplicity
 _atom_site_fract_x
 _atom_site_fract_y
 _atom_site_fract_z
 _atom_site_occupancy
  Be  Be0  8  0.16876426  0.50020346  0.32744835  1
  Si  Si1  4  0.08697400  0.75000000  0.82194863  1
  O  O2  8  0.17370308  0.52669963  0.68603387  1
  O  O3  4  0.07818545  0.25000000  0.25902597  1
  O  O4  4  0.10901480  0.75000000  0.18027118  1
