# generated using pymatgen
data_BeS
_symmetry_space_group_name_H-M   R3m
_cell_length_a   3.44714546
_cell_length_b   3.44714546
_cell_length_c   152.18824086
_cell_angle_alpha   90.00000000
_cell_angle_beta   90.00000000
_cell_angle_gamma   120.00000000
_symmetry_Int_Tables_number   160
_chemical_formula_structural   BeS
_chemical_formula_sum   'Be54 S54'
_cell_volume   1566.14132168
_cell_formula_units_Z   54
loop_
 _symmetry_equiv_pos_site_id
 _symmetry_equiv_pos_as_xyz
  1  'x, y, z'
  2  '-y, x-y, z'
  3  '-x+y, -x, z'
  4  '-y, -x, z'
  5  '-x+y, y, z'
  6  'x, x-y, z'
  7  'x+2/3, y+1/3, z+1/3'
  8  '-y+2/3, x-y+1/3, z+1/3'
  9  '-x+y+2/3, -x+1/3, z+1/3'
  10  '-y+2/3, -x+1/3, z+1/3'
  11  '-x+y+2/3, y+1/3, z+1/3'
  12  'x+2/3, x-y+1/3, z+1/3'
  13  'x+1/3, y+2/3, z+2/3'
  14  '-y+1/3, x-y+2/3, z+2/3'
  15  '-x+y+1/3, -x+2/3, z+2/3'
  16  '-y+1/3, -x+2/3, z+2/3'
  17  '-x+y+1/3, y+2/3, z+2/3'
  18  'x+1/3, x-y+2/3, z+2/3'
loop_
 _atom_site_type_symbol
 _atom_site_label
 _atom_site_symmetry_multiplicity
 _atom_site_fract_x
 _atom_site_fract_y
 _atom_site_fract_z
 _atom_site_occupancy
  Be  Be0  3  0.00000000  0.00000000  0.03703121  1
  Be  Be1  3  0.00000000  0.00000000  0.07408359  1
  Be  Be2  3  0.00000000  0.00000000  0.12963181  1
  Be  Be3  3  0.00000000  0.00000000  0.20368687  1
  Be  Be4  3  0.00000000  0.00000000  0.24075020  1
  Be  Be5  3  0.00000000  0.00000000  0.29630068  1
  Be  Be6  3  0.00000000  0.00000000  0.35186424  1
  Be  Be7  3  0.00000000  0.00000000  0.42593081  1
  Be  Be8  3  0.00000000  0.00000000  0.48146548  1
  Be  Be9  3  0.00000000  0.00000000  0.51852714  1
  Be  Be10  3  0.00000000  0.00000000  0.59259240  1
  Be  Be11  3  0.00000000  0.00000000  0.64815139  1
  Be  Be12  3  0.00000000  0.00000000  0.72223338  1
  Be  Be13  3  0.00000000  0.00000000  0.77778303  1
  Be  Be14  3  0.00000000  0.00000000  0.83334468  1
  Be  Be15  3  0.00000000  0.00000000  0.88890219  1
  Be  Be16  3  0.00000000  0.00000000  0.94444534  1
  Be  Be17  3  0.00000000  0.00000000  0.99998558  1
  S  S18  3  0.00000000  0.00000000  0.02317098  1
  S  S19  3  0.00000000  0.00000000  0.06020803  1
  S  S20  3  0.00000000  0.00000000  0.11574332  1
  S  S21  3  0.00000000  0.00000000  0.18981351  1
  S  S22  3  0.00000000  0.00000000  0.22687649  1
  S  S23  3  0.00000000  0.00000000  0.28240854  1
  S  S24  3  0.00000000  0.00000000  0.33793773  1
  S  S25  3  0.00000000  0.00000000  0.41204061  1
  S  S26  3  0.00000000  0.00000000  0.46759069  1
  S  S27  3  0.00000000  0.00000000  0.50465322  1
  S  S28  3  0.00000000  0.00000000  0.57870455  1
  S  S29  3  0.00000000  0.00000000  0.63426211  1
  S  S30  3  0.00000000  0.00000000  0.70830922  1
  S  S31  3  0.00000000  0.00000000  0.76389246  1
  S  S32  3  0.00000000  0.00000000  0.81941755  1
  S  S33  3  0.00000000  0.00000000  0.87497348  1
  S  S34  3  0.00000000  0.00000000  0.93055374  1
  S  S35  3  0.00000000  0.00000000  0.98611068  1
