# generated using pymatgen
data_Bi2Cl2O
_symmetry_space_group_name_H-M   P4/mmm
_cell_length_a   3.51796518
_cell_length_b   3.51796518
_cell_length_c   14.53856402
_cell_angle_alpha   90.00000000
_cell_angle_beta   90.00000000
_cell_angle_gamma   90.00000000
_symmetry_Int_Tables_number   123
_chemical_formula_structural   Bi2Cl2O
_chemical_formula_sum   'Bi2 Cl2 O1'
_cell_volume   179.93041697
_cell_formula_units_Z   1
loop_
 _symmetry_equiv_pos_site_id
 _symmetry_equiv_pos_as_xyz
  1  'x, y, z'
  2  '-x, -y, -z'
  3  '-y, x, z'
  4  'y, -x, -z'
  5  '-x, -y, z'
  6  'x, y, -z'
  7  'y, -x, z'
  8  '-y, x, -z'
  9  'x, -y, -z'
  10  '-x, y, z'
  11  '-y, -x, -z'
  12  'y, x, z'
  13  '-x, y, -z'
  14  'x, -y, z'
  15  'y, x, -z'
  16  '-y, -x, z'
loop_
 _atom_site_type_symbol
 _atom_site_label
 _atom_site_symmetry_multiplicity
 _atom_site_fract_x
 _atom_site_fract_y
 _atom_site_fract_z
 _atom_site_occupancy
  Bi  Bi0  2  0.50000000  0.50000000  0.14867802  1
  Cl  Cl1  2  0.50000000  0.50000000  0.32265308  1
  O  O2  1  0.50000000  0.50000000  0.00000000  1
