# generated using pymatgen
data_Bi2PbS4
_symmetry_space_group_name_H-M   Pnma
_cell_length_a   12.35197547
_cell_length_b   4.07161768
_cell_length_c   14.86436081
_cell_angle_alpha   90.00000000
_cell_angle_beta   90.00000000
_cell_angle_gamma   90.00000000
_symmetry_Int_Tables_number   62
_chemical_formula_structural   Bi2PbS4
_chemical_formula_sum   'Bi8 Pb4 S16'
_cell_volume   747.56618869
_cell_formula_units_Z   4
loop_
 _symmetry_equiv_pos_site_id
 _symmetry_equiv_pos_as_xyz
  1  'x, y, z'
  2  '-x, -y, -z'
  3  '-x+1/2, -y, z+1/2'
  4  'x+1/2, y, -z+1/2'
  5  'x+1/2, -y+1/2, -z+1/2'
  6  '-x+1/2, y+1/2, z+1/2'
  7  '-x, y+1/2, -z'
  8  'x, -y+1/2, z'
loop_
 _atom_site_type_symbol
 _atom_site_label
 _atom_site_symmetry_multiplicity
 _atom_site_fract_x
 _atom_site_fract_y
 _atom_site_fract_z
 _atom_site_occupancy
  Bi  Bi0  4  0.06719023  0.75000000  0.39149406  1
  Bi  Bi1  4  0.07731874  0.75000000  0.89910998  1
  Pb  Pb2  4  0.22275737  0.75000000  0.16673632  1
  S  S3  4  0.00219153  0.25000000  0.78818894  1
  S  S4  4  0.07975532  0.75000000  0.58421760  1
  S  S5  4  0.13445640  0.25000000  0.02747647  1
  S  S6  4  0.21683773  0.25000000  0.31217892  1
