# generated using pymatgen
data_BiCl3
_symmetry_space_group_name_H-M   P2_1/m
_cell_length_a   3.76801186
_cell_length_b   11.34414308
_cell_length_c   7.07120603
_cell_angle_alpha   90.00000000
_cell_angle_beta   104.47374773
_cell_angle_gamma   90.00000000
_symmetry_Int_Tables_number   11
_chemical_formula_structural   BiCl3
_chemical_formula_sum   'Bi2 Cl6'
_cell_volume   292.66477409
_cell_formula_units_Z   2
loop_
 _symmetry_equiv_pos_site_id
 _symmetry_equiv_pos_as_xyz
  1  'x, y, z'
  2  '-x, -y, -z'
  3  '-x, y+1/2, -z'
  4  'x, -y+1/2, z'
loop_
 _atom_site_type_symbol
 _atom_site_label
 _atom_site_symmetry_multiplicity
 _atom_site_fract_x
 _atom_site_fract_y
 _atom_site_fract_z
 _atom_site_occupancy
  Bi  Bi0  2  0.34010306  0.25000000  0.04998108  1
  Cl  Cl1  4  0.14770631  0.59452631  0.79677964  1
  Cl  Cl2  2  0.35963133  0.75000000  0.24872945  1
