# generated using pymatgen
data_BiF3
_symmetry_space_group_name_H-M   P2_1/m
_cell_length_a   3.83112059
_cell_length_b   7.33861542
_cell_length_c   4.43999202
_cell_angle_alpha   90.00000000
_cell_angle_beta   114.94381775
_cell_angle_gamma   90.00000000
_symmetry_Int_Tables_number   11
_chemical_formula_structural   BiF3
_chemical_formula_sum   'Bi2 F6'
_cell_volume   113.18690299
_cell_formula_units_Z   2
loop_
 _symmetry_equiv_pos_site_id
 _symmetry_equiv_pos_as_xyz
  1  'x, y, z'
  2  '-x, -y, -z'
  3  '-x, y+1/2, -z'
  4  'x, -y+1/2, z'
loop_
 _atom_site_type_symbol
 _atom_site_label
 _atom_site_symmetry_multiplicity
 _atom_site_fract_x
 _atom_site_fract_y
 _atom_site_fract_z
 _atom_site_occupancy
  Bi  Bi0  2  0.23663023  0.25000000  0.49157163  1
  F  F1  4  0.33220745  0.57255228  0.66898397  1
  F  F2  2  0.03177772  0.75000000  0.06809780  1
