# generated using pymatgen
data_BiTeClO3
_symmetry_space_group_name_H-M   Pnma
_cell_length_a   12.49511533
_cell_length_b   5.54745063
_cell_length_c   6.90464519
_cell_angle_alpha   90.00000000
_cell_angle_beta   90.00000000
_cell_angle_gamma   90.00000000
_symmetry_Int_Tables_number   62
_chemical_formula_structural   BiTeClO3
_chemical_formula_sum   'Bi4 Te4 Cl4 O12'
_cell_volume   478.60263048
_cell_formula_units_Z   4
loop_
 _symmetry_equiv_pos_site_id
 _symmetry_equiv_pos_as_xyz
  1  'x, y, z'
  2  '-x, -y, -z'
  3  '-x+1/2, -y, z+1/2'
  4  'x+1/2, y, -z+1/2'
  5  'x+1/2, -y+1/2, -z+1/2'
  6  '-x+1/2, y+1/2, z+1/2'
  7  '-x, y+1/2, -z'
  8  'x, -y+1/2, z'
loop_
 _atom_site_type_symbol
 _atom_site_label
 _atom_site_symmetry_multiplicity
 _atom_site_fract_x
 _atom_site_fract_y
 _atom_site_fract_z
 _atom_site_occupancy
  Bi  Bi0  4  0.04605085  0.25000000  0.80614565  1
  Te  Te1  4  0.21466831  0.75000000  0.96266819  1
  Cl  Cl2  4  0.06328640  0.75000000  0.60739791  1
  O  O3  8  0.11221914  0.50737021  0.03131615  1
  O  O4  4  0.21992226  0.25000000  0.71031980  1
