# generated using pymatgen
data_Ca2B2O5
_symmetry_space_group_name_H-M   P-1
_cell_length_a   3.54600565
_cell_length_b   6.48081885
_cell_length_c   10.17369283
_cell_angle_alpha   106.13454690
_cell_angle_beta   90.67552881
_cell_angle_gamma   91.38091228
_symmetry_Int_Tables_number   2
_chemical_formula_structural   Ca2B2O5
_chemical_formula_sum   'Ca4 B4 O10'
_cell_volume   224.48596572
_cell_formula_units_Z   2
loop_
 _symmetry_equiv_pos_site_id
 _symmetry_equiv_pos_as_xyz
  1  'x, y, z'
  2  '-x, -y, -z'
loop_
 _atom_site_type_symbol
 _atom_site_label
 _atom_site_symmetry_multiplicity
 _atom_site_fract_x
 _atom_site_fract_y
 _atom_site_fract_z
 _atom_site_occupancy
  Ca  Ca0  2  0.22535725  0.34947412  0.09291322  1
  Ca  Ca1  2  0.25260515  0.77700928  0.62501009  1
  B  B2  2  0.31922629  0.33098273  0.65916829  1
  B  B3  2  0.33625825  0.87426475  0.18361217  1
  O  O4  2  0.22619680  0.08107184  0.20159076  1
  O  O5  2  0.24903134  0.29985255  0.52331070  1
  O  O6  2  0.26580746  0.52407371  0.75434923  1
  O  O7  2  0.28056756  0.70865105  0.06748052  1
  O  O8  2  0.46562587  0.15327875  0.69879275  1
