# generated using pymatgen
data_Ca2SiO4
_symmetry_space_group_name_H-M   Pnma
_cell_length_a   11.21029593
_cell_length_b   7.62538483
_cell_length_c   5.49696573
_cell_angle_alpha   90.00000000
_cell_angle_beta   90.00000000
_cell_angle_gamma   90.00000000
_symmetry_Int_Tables_number   62
_chemical_formula_structural   Ca2SiO4
_chemical_formula_sum   'Ca8 Si4 O16'
_cell_volume   469.89613493
_cell_formula_units_Z   4
loop_
 _symmetry_equiv_pos_site_id
 _symmetry_equiv_pos_as_xyz
  1  'x, y, z'
  2  '-x, -y, -z'
  3  '-x+1/2, -y, z+1/2'
  4  'x+1/2, y, -z+1/2'
  5  'x+1/2, -y+1/2, -z+1/2'
  6  '-x+1/2, y+1/2, z+1/2'
  7  '-x, y+1/2, -z'
  8  'x, -y+1/2, z'
loop_
 _atom_site_type_symbol
 _atom_site_label
 _atom_site_symmetry_multiplicity
 _atom_site_fract_x
 _atom_site_fract_y
 _atom_site_fract_z
 _atom_site_occupancy
  Ca  Ca0  8  0.14294264  0.00043507  0.30491285  1
  Si  Si1  4  0.10278851  0.75000000  0.80662762  1
  O  O2  8  0.16866549  0.57166516  0.70065846  1
  O  O3  4  0.03721416  0.25000000  0.28352379  1
  O  O4  4  0.11363170  0.75000000  0.10495973  1
