# generated using pymatgen
data_Ca2ZrS4
_symmetry_space_group_name_H-M   Pbam
_cell_length_a   7.05138370
_cell_length_b   11.74597939
_cell_length_c   3.89848981
_cell_angle_alpha   90.00000000
_cell_angle_beta   90.00000000
_cell_angle_gamma   90.00000000
_symmetry_Int_Tables_number   55
_chemical_formula_structural   Ca2ZrS4
_chemical_formula_sum   'Ca4 Zr2 S8'
_cell_volume   322.89400758
_cell_formula_units_Z   2
loop_
 _symmetry_equiv_pos_site_id
 _symmetry_equiv_pos_as_xyz
  1  'x, y, z'
  2  '-x, -y, -z'
  3  '-x, -y, z'
  4  'x, y, -z'
  5  'x+1/2, -y+1/2, -z'
  6  '-x+1/2, y+1/2, z'
  7  '-x+1/2, y+1/2, -z'
  8  'x+1/2, -y+1/2, z'
loop_
 _atom_site_type_symbol
 _atom_site_label
 _atom_site_symmetry_multiplicity
 _atom_site_fract_x
 _atom_site_fract_y
 _atom_site_fract_z
 _atom_site_occupancy
  Ca  Ca0  4  0.09926802  0.81548266  0.50000000  1
  Zr  Zr1  2  0.00000000  0.50000000  0.00000000  1
  S  S2  4  0.11851916  0.29522570  0.00000000  1
  S  S3  4  0.23700152  0.54507281  0.50000000  1
