# generated using pymatgen
data_CaH2I2O7
_symmetry_space_group_name_H-M   C2/c
_cell_length_a   12.55240078
_cell_length_b   7.71289262
_cell_length_c   8.80583603
_cell_angle_alpha   90.00000000
_cell_angle_beta   125.73875948
_cell_angle_gamma   90.00000000
_symmetry_Int_Tables_number   15
_chemical_formula_structural   CaH2I2O7
_chemical_formula_sum   'Ca4 H8 I8 O28'
_cell_volume   691.99684769
_cell_formula_units_Z   4
loop_
 _symmetry_equiv_pos_site_id
 _symmetry_equiv_pos_as_xyz
  1  'x, y, z'
  2  '-x, -y, -z'
  3  '-x, y, -z+1/2'
  4  'x, -y, z+1/2'
  5  'x+1/2, y+1/2, z'
  6  '-x+1/2, -y+1/2, -z'
  7  '-x+1/2, y+1/2, -z+1/2'
  8  'x+1/2, -y+1/2, z+1/2'
loop_
 _atom_site_type_symbol
 _atom_site_label
 _atom_site_symmetry_multiplicity
 _atom_site_fract_x
 _atom_site_fract_y
 _atom_site_fract_z
 _atom_site_occupancy
  Ca  Ca0  4  0.00000000  0.19643414  0.75000000  1
  H  H1  8  0.02177776  0.18756722  0.18145114  1
  I  I2  8  0.18137320  0.49267704  0.66249217  1
  O  O3  8  0.06686584  0.32028848  0.05299643  1
  O  O4  8  0.15637635  0.55823073  0.34318692  1
  O  O5  8  0.16437747  0.11050758  0.69673089  1
  O  O6  4  0.00000000  0.11176304  0.25000000  1
