# generated using pymatgen
data_CaS
_symmetry_space_group_name_H-M   P3m1
_cell_length_a   4.46959317
_cell_length_b   4.46959317
_cell_length_c   36.25713557
_cell_angle_alpha   90.00000000
_cell_angle_beta   90.00000000
_cell_angle_gamma   120.00000000
_symmetry_Int_Tables_number   156
_chemical_formula_structural   CaS
_chemical_formula_sum   'Ca10 S10'
_cell_volume   627.27808101
_cell_formula_units_Z   10
loop_
 _symmetry_equiv_pos_site_id
 _symmetry_equiv_pos_as_xyz
  1  'x, y, z'
  2  '-y, x-y, z'
  3  '-x+y, -x, z'
  4  '-y, -x, z'
  5  '-x+y, y, z'
  6  'x, x-y, z'
loop_
 _atom_site_type_symbol
 _atom_site_label
 _atom_site_symmetry_multiplicity
 _atom_site_fract_x
 _atom_site_fract_y
 _atom_site_fract_z
 _atom_site_occupancy
  Ca  Ca0  1  0.00000000  0.00000000  0.19984896  1
  Ca  Ca1  1  0.00000000  0.00000000  0.49985222  1
  Ca  Ca2  1  0.00000000  0.00000000  0.80009968  1
  Ca  Ca3  1  0.33333333  0.66666667  0.00008899  1
  Ca  Ca4  1  0.33333333  0.66666667  0.29987649  1
  Ca  Ca5  1  0.33333333  0.66666667  0.59983335  1
  Ca  Ca6  1  0.66666667  0.33333333  0.09949754  1
  Ca  Ca7  1  0.66666667  0.33333333  0.39985955  1
  Ca  Ca8  1  0.66666667  0.33333333  0.69994687  1
  Ca  Ca9  1  0.66666667  0.33333333  0.89959628  1
  S  S10  1  0.00000000  0.00000000  0.27516308  1
  S  S11  1  0.00000000  0.00000000  0.57512401  1
  S  S12  1  0.00000000  0.00000000  0.87512364  1
  S  S13  1  0.33333333  0.66666667  0.07512856  1
  S  S14  1  0.33333333  0.66666667  0.37514668  1
  S  S15  1  0.33333333  0.66666667  0.67512303  1
  S  S16  1  0.66666667  0.33333333  0.17498942  1
  S  S17  1  0.66666667  0.33333333  0.47513562  1
  S  S18  1  0.66666667  0.33333333  0.77535105  1
  S  S19  1  0.66666667  0.33333333  0.97521393  1
