# generated using pymatgen
data_CaSc2O4
_symmetry_space_group_name_H-M   Pnma
_cell_length_a   9.53308186
_cell_length_b   3.16326685
_cell_length_c   11.18656176
_cell_angle_alpha   90.00000000
_cell_angle_beta   90.00000000
_cell_angle_gamma   90.00000000
_symmetry_Int_Tables_number   62
_chemical_formula_structural   CaSc2O4
_chemical_formula_sum   'Ca4 Sc8 O16'
_cell_volume   337.33839716
_cell_formula_units_Z   4
loop_
 _symmetry_equiv_pos_site_id
 _symmetry_equiv_pos_as_xyz
  1  'x, y, z'
  2  '-x, -y, -z'
  3  '-x+1/2, -y, z+1/2'
  4  'x+1/2, y, -z+1/2'
  5  'x+1/2, -y+1/2, -z+1/2'
  6  '-x+1/2, y+1/2, z+1/2'
  7  '-x, y+1/2, -z'
  8  'x, -y+1/2, z'
loop_
 _atom_site_type_symbol
 _atom_site_label
 _atom_site_symmetry_multiplicity
 _atom_site_fract_x
 _atom_site_fract_y
 _atom_site_fract_z
 _atom_site_occupancy
  Ca  Ca0  4  0.24422113  0.25000000  0.15204759  1
  Sc  Sc1  4  0.07030427  0.25000000  0.38776344  1
  Sc  Sc2  4  0.07975715  0.25000000  0.89276009  1
  O  O3  4  0.02184619  0.75000000  0.78406899  1
  O  O4  4  0.08002013  0.25000000  0.57553722  1
  O  O5  4  0.12320536  0.75000000  0.02427638  1
  O  O6  4  0.20766856  0.75000000  0.32896247  1
