# generated using pymatgen
data_CaTi2O5
_symmetry_space_group_name_H-M   Cmcm
_cell_length_a   3.81335771
_cell_length_b   11.14988555
_cell_length_c   11.49132088
_cell_angle_alpha   90.00000000
_cell_angle_beta   90.00000000
_cell_angle_gamma   90.00000000
_symmetry_Int_Tables_number   63
_chemical_formula_structural   CaTi2O5
_chemical_formula_sum   'Ca4 Ti8 O20'
_cell_volume   488.59375033
_cell_formula_units_Z   4
loop_
 _symmetry_equiv_pos_site_id
 _symmetry_equiv_pos_as_xyz
  1  'x, y, z'
  2  '-x, -y, -z'
  3  '-x, -y, z+1/2'
  4  'x, y, -z+1/2'
  5  'x, -y, -z'
  6  '-x, y, z'
  7  '-x, y, -z+1/2'
  8  'x, -y, z+1/2'
  9  'x+1/2, y+1/2, z'
  10  '-x+1/2, -y+1/2, -z'
  11  '-x+1/2, -y+1/2, z+1/2'
  12  'x+1/2, y+1/2, -z+1/2'
  13  'x+1/2, -y+1/2, -z'
  14  '-x+1/2, y+1/2, z'
  15  '-x+1/2, y+1/2, -z+1/2'
  16  'x+1/2, -y+1/2, z+1/2'
loop_
 _atom_site_type_symbol
 _atom_site_label
 _atom_site_symmetry_multiplicity
 _atom_site_fract_x
 _atom_site_fract_y
 _atom_site_fract_z
 _atom_site_occupancy
  Ca  Ca0  4  0.00000000  0.09416288  0.25000000  1
  Ti  Ti1  8  0.00000000  0.20706598  0.59730012  1
  O  O2  8  0.00000000  0.05740624  0.62047839  1
  O  O3  8  0.00000000  0.23896416  0.07578507  1
  O  O4  4  0.00000000  0.28920081  0.75000000  1
