# generated using pymatgen
data_Cr2CdO5
_symmetry_space_group_name_H-M   Cmcm
_cell_length_a   3.92649156
_cell_length_b   10.79696525
_cell_length_c   10.95469437
_cell_angle_alpha   90.00000000
_cell_angle_beta   90.00000000
_cell_angle_gamma   90.00000000
_symmetry_Int_Tables_number   63
_chemical_formula_structural   Cr2CdO5
_chemical_formula_sum   'Cr8 Cd4 O20'
_cell_volume   464.41542660
_cell_formula_units_Z   4
loop_
 _symmetry_equiv_pos_site_id
 _symmetry_equiv_pos_as_xyz
  1  'x, y, z'
  2  '-x, -y, -z'
  3  '-x, -y, z+1/2'
  4  'x, y, -z+1/2'
  5  'x, -y, -z'
  6  '-x, y, z'
  7  '-x, y, -z+1/2'
  8  'x, -y, z+1/2'
  9  'x+1/2, y+1/2, z'
  10  '-x+1/2, -y+1/2, -z'
  11  '-x+1/2, -y+1/2, z+1/2'
  12  'x+1/2, y+1/2, -z+1/2'
  13  'x+1/2, -y+1/2, -z'
  14  '-x+1/2, y+1/2, z'
  15  '-x+1/2, y+1/2, -z+1/2'
  16  'x+1/2, -y+1/2, z+1/2'
loop_
 _atom_site_type_symbol
 _atom_site_label
 _atom_site_symmetry_multiplicity
 _atom_site_fract_x
 _atom_site_fract_y
 _atom_site_fract_z
 _atom_site_occupancy
  Cr  Cr0  8  0.00000000  0.21155652  0.59371343  1
  Cd  Cd1  4  0.00000000  0.09291818  0.25000000  1
  O  O2  8  0.00000000  0.05819585  0.61688382  1
  O  O3  8  0.00000000  0.25133023  0.07410078  1
  O  O4  4  0.00000000  0.29759000  0.75000000  1
