# generated using pymatgen
data_Cr2O5
_symmetry_space_group_name_H-M   Pmmn
_cell_length_a   3.71506868
_cell_length_b   10.69631538
_cell_length_c   5.61019126
_cell_angle_alpha   90.00000000
_cell_angle_beta   90.00000000
_cell_angle_gamma   90.00000000
_symmetry_Int_Tables_number   59
_chemical_formula_structural   Cr2O5
_chemical_formula_sum   'Cr4 O10'
_cell_volume   222.93523496
_cell_formula_units_Z   2
loop_
 _symmetry_equiv_pos_site_id
 _symmetry_equiv_pos_as_xyz
  1  'x, y, z'
  2  '-x, -y, z'
  3  'x+1/2, -y+1/2, -z'
  4  '-x+1/2, y+1/2, -z'
  5  '-x+1/2, -y+1/2, -z'
  6  'x+1/2, y+1/2, -z'
  7  '-x, y, z'
  8  'x, -y, z'
loop_
 _atom_site_type_symbol
 _atom_site_label
 _atom_site_symmetry_multiplicity
 _atom_site_fract_x
 _atom_site_fract_y
 _atom_site_fract_z
 _atom_site_occupancy
  Cr  Cr0  4  0.00000000  0.15567757  0.39326827  1
  O  O1  4  0.00000000  0.15692485  0.11383557  1
  O  O2  4  0.00000000  0.31897697  0.52607631  1
  O  O3  2  0.00000000  0.00000000  0.51404385  1
