# generated using pymatgen
data_CrI3
_symmetry_space_group_name_H-M   P2_1/m
_cell_length_a   3.64025445
_cell_length_b   13.30131090
_cell_length_c   7.42185385
_cell_angle_alpha   90.00000000
_cell_angle_beta   103.74840257
_cell_angle_gamma   90.00000000
_symmetry_Int_Tables_number   11
_chemical_formula_structural   CrI3
_chemical_formula_sum   'Cr2 I6'
_cell_volume   349.07098057
_cell_formula_units_Z   2
loop_
 _symmetry_equiv_pos_site_id
 _symmetry_equiv_pos_as_xyz
  1  'x, y, z'
  2  '-x, -y, -z'
  3  '-x, y+1/2, -z'
  4  'x, -y+1/2, z'
loop_
 _atom_site_type_symbol
 _atom_site_label
 _atom_site_symmetry_multiplicity
 _atom_site_fract_x
 _atom_site_fract_y
 _atom_site_fract_z
 _atom_site_occupancy
  Cr  Cr0  2  0.19788162  0.75000000  0.43241459  1
  I  I1  4  0.36942949  0.11393667  0.71317923  1
  I  I2  2  0.15977460  0.25000000  0.27676280  1
