# generated using pymatgen
data_Cs2PHO4
_symmetry_space_group_name_H-M   P2_1
_cell_length_a   6.31619327
_cell_length_b   8.05495909
_cell_length_c   6.46200153
_cell_angle_alpha   90.00000000
_cell_angle_beta   119.05845531
_cell_angle_gamma   90.00000000
_symmetry_Int_Tables_number   4
_chemical_formula_structural   Cs2PHO4
_chemical_formula_sum   'Cs4 P2 H2 O8'
_cell_volume   287.38173613
_cell_formula_units_Z   2
loop_
 _symmetry_equiv_pos_site_id
 _symmetry_equiv_pos_as_xyz
  1  'x, y, z'
  2  '-x, y+1/2, -z'
loop_
 _atom_site_type_symbol
 _atom_site_label
 _atom_site_symmetry_multiplicity
 _atom_site_fract_x
 _atom_site_fract_y
 _atom_site_fract_z
 _atom_site_occupancy
  Cs  Cs0  2  0.03548841  0.98257426  0.00621167  1
  Cs  Cs1  2  0.37239906  0.23446261  0.72501741  1
  P  P2  2  0.28682934  0.76407767  0.60836384  1
  H  H3  2  0.07362764  0.53536933  0.58613136  1
  O  O4  2  0.13109325  0.91310947  0.60780870  1
  O  O5  2  0.20313457  0.60705775  0.71562155  1
  O  O6  2  0.22185239  0.71448183  0.35637428  1
  O  O7  2  0.44324347  0.28766578  0.22174874  1
