# generated using pymatgen
data_Cs2SiO3
_symmetry_space_group_name_H-M   Cmce
_cell_length_a   5.49048248
_cell_length_b   13.33401327
_cell_length_c   14.75171139
_cell_angle_alpha   90.00000000
_cell_angle_beta   90.00000000
_cell_angle_gamma   90.00000000
_symmetry_Int_Tables_number   64
_chemical_formula_structural   Cs2SiO3
_chemical_formula_sum   'Cs16 Si8 O24'
_cell_volume   1079.97524410
_cell_formula_units_Z   8
loop_
 _symmetry_equiv_pos_site_id
 _symmetry_equiv_pos_as_xyz
  1  'x, y, z'
  2  '-x, -y, -z'
  3  '-x+1/2, -y, z+1/2'
  4  'x+1/2, y, -z+1/2'
  5  'x, -y, -z'
  6  '-x, y, z'
  7  '-x+1/2, y, -z+1/2'
  8  'x+1/2, -y, z+1/2'
  9  'x+1/2, y+1/2, z'
  10  '-x+1/2, -y+1/2, -z'
  11  '-x, -y+1/2, z+1/2'
  12  'x, y+1/2, -z+1/2'
  13  'x+1/2, -y+1/2, -z'
  14  '-x+1/2, y+1/2, z'
  15  '-x, y+1/2, -z+1/2'
  16  'x, -y+1/2, z+1/2'
loop_
 _atom_site_type_symbol
 _atom_site_label
 _atom_site_symmetry_multiplicity
 _atom_site_fract_x
 _atom_site_fract_y
 _atom_site_fract_z
 _atom_site_occupancy
  Cs  Cs0  8  0.00000000  0.03511812  0.84725454  1
  Cs  Cs1  8  0.00000000  0.15039375  0.44990123  1
  Si  Si2  8  0.00000000  0.23734929  0.68622790  1
  O  O3  8  0.00000000  0.11864073  0.66008970  1
  O  O4  8  0.00000000  0.18701495  0.09999862  1
  O  O5  8  0.25000000  0.23517442  0.25000000  1
