# generated using pymatgen
data_Cs2SeO4
_symmetry_space_group_name_H-M   Pnma
_cell_length_a   13.90742438
_cell_length_b   6.49093988
_cell_length_c   8.33137801
_cell_angle_alpha   90.00000000
_cell_angle_beta   90.00000000
_cell_angle_gamma   90.00000000
_symmetry_Int_Tables_number   62
_chemical_formula_structural   Cs2SeO4
_chemical_formula_sum   'Cs8 Se4 O16'
_cell_volume   752.09228469
_cell_formula_units_Z   4
loop_
 _symmetry_equiv_pos_site_id
 _symmetry_equiv_pos_as_xyz
  1  'x, y, z'
  2  '-x, -y, -z'
  3  '-x+1/2, -y, z+1/2'
  4  'x+1/2, y, -z+1/2'
  5  'x+1/2, -y+1/2, -z+1/2'
  6  '-x+1/2, y+1/2, z+1/2'
  7  '-x, y+1/2, -z'
  8  'x, -y+1/2, z'
loop_
 _atom_site_type_symbol
 _atom_site_label
 _atom_site_symmetry_multiplicity
 _atom_site_fract_x
 _atom_site_fract_y
 _atom_site_fract_z
 _atom_site_occupancy
  Cs  Cs0  4  0.02640330  0.75000000  0.65941652  1
  Cs  Cs1  4  0.17737185  0.25000000  0.96581639  1
  Se  Se2  4  0.09235782  0.75000000  0.20357056  1
  O  O3  8  0.14955680  0.53840170  0.27044613  1
  O  O4  4  0.01964618  0.25000000  0.71734027  1
  O  O5  4  0.08663067  0.75000000  0.00268250  1
