# generated using pymatgen
data_Cs3AsO4
_symmetry_space_group_name_H-M   Pmmn
_cell_length_a   5.97020375
_cell_length_b   8.15887648
_cell_length_c   6.49300050
_cell_angle_alpha   90.00000000
_cell_angle_beta   90.00000000
_cell_angle_gamma   90.00000000
_symmetry_Int_Tables_number   59
_chemical_formula_structural   Cs3AsO4
_chemical_formula_sum   'Cs6 As2 O8'
_cell_volume   316.27506050
_cell_formula_units_Z   2
loop_
 _symmetry_equiv_pos_site_id
 _symmetry_equiv_pos_as_xyz
  1  'x, y, z'
  2  '-x, -y, z'
  3  'x+1/2, -y+1/2, -z'
  4  '-x+1/2, y+1/2, -z'
  5  '-x+1/2, -y+1/2, -z'
  6  'x+1/2, y+1/2, -z'
  7  '-x, y, z'
  8  'x, -y, z'
loop_
 _atom_site_type_symbol
 _atom_site_label
 _atom_site_symmetry_multiplicity
 _atom_site_fract_x
 _atom_site_fract_y
 _atom_site_fract_z
 _atom_site_occupancy
  Cs  Cs0  4  0.00000000  0.24621825  0.27785734  1
  Cs  Cs1  2  0.00000000  0.50000000  0.81571071  1
  As  As2  2  0.00000000  0.00000000  0.70579089  1
  O  O3  4  0.00000000  0.16972952  0.85829232  1
  O  O4  4  0.22992530  0.00000000  0.54527227  1
