# generated using pymatgen
data_CsCaPO4
_symmetry_space_group_name_H-M   Pnma
_cell_length_a   9.53647096
_cell_length_b   5.83020166
_cell_length_c   10.51478032
_cell_angle_alpha   90.00000000
_cell_angle_beta   90.00000000
_cell_angle_gamma   90.00000000
_symmetry_Int_Tables_number   62
_chemical_formula_structural   CsCaPO4
_chemical_formula_sum   'Cs4 Ca4 P4 O16'
_cell_volume   584.61704175
_cell_formula_units_Z   4
loop_
 _symmetry_equiv_pos_site_id
 _symmetry_equiv_pos_as_xyz
  1  'x, y, z'
  2  '-x, -y, -z'
  3  '-x+1/2, -y, z+1/2'
  4  'x+1/2, y, -z+1/2'
  5  'x+1/2, -y+1/2, -z+1/2'
  6  '-x+1/2, y+1/2, z+1/2'
  7  '-x, y+1/2, -z'
  8  'x, -y+1/2, z'
loop_
 _atom_site_type_symbol
 _atom_site_label
 _atom_site_symmetry_multiplicity
 _atom_site_fract_x
 _atom_site_fract_y
 _atom_site_fract_z
 _atom_site_occupancy
  Cs  Cs0  4  0.01599533  0.75000000  0.67047972  1
  Ca  Ca1  4  0.15822118  0.25000000  0.90973200  1
  P  P2  4  0.23506185  0.75000000  0.07029668  1
  O  O3  8  0.21633010  0.03288061  0.49548542  1
  O  O4  4  0.07284643  0.75000000  0.08178451  1
  O  O5  4  0.19421361  0.25000000  0.70321801  1
