# generated using pymatgen
data_CsCoPO4
_symmetry_space_group_name_H-M   Pnma
_cell_length_a   9.16916642
_cell_length_b   5.59606353
_cell_length_c   9.81886916
_cell_angle_alpha   90.00000000
_cell_angle_beta   90.00000000
_cell_angle_gamma   90.00000000
_symmetry_Int_Tables_number   62
_chemical_formula_structural   CsCoPO4
_chemical_formula_sum   'Cs4 Co4 P4 O16'
_cell_volume   503.81833043
_cell_formula_units_Z   4
loop_
 _symmetry_equiv_pos_site_id
 _symmetry_equiv_pos_as_xyz
  1  'x, y, z'
  2  '-x, -y, -z'
  3  '-x+1/2, -y, z+1/2'
  4  'x+1/2, y, -z+1/2'
  5  'x+1/2, -y+1/2, -z+1/2'
  6  '-x+1/2, y+1/2, z+1/2'
  7  '-x, y+1/2, -z'
  8  'x, -y+1/2, z'
loop_
 _atom_site_type_symbol
 _atom_site_label
 _atom_site_symmetry_multiplicity
 _atom_site_fract_x
 _atom_site_fract_y
 _atom_site_fract_z
 _atom_site_occupancy
  Cs  Cs0  4  0.01195760  0.75000000  0.69039378  1
  Co  Co1  4  0.16464321  0.25000000  0.90243196  1
  P  P2  4  0.21239082  0.75000000  0.07288591  1
  O  O3  8  0.24306662  0.02529194  0.48847708  1
  O  O4  4  0.04860135  0.75000000  0.10601338  1
  O  O5  4  0.19454945  0.25000000  0.70444263  1
