# generated using pymatgen
data_CsMgPO4
_symmetry_space_group_name_H-M   Pnma
_cell_length_a   9.16848372
_cell_length_b   5.63069744
_cell_length_c   9.80000451
_cell_angle_alpha   90.00000000
_cell_angle_beta   90.00000000
_cell_angle_gamma   90.00000000
_symmetry_Int_Tables_number   62
_chemical_formula_structural   CsMgPO4
_chemical_formula_sum   'Cs4 Mg4 P4 O16'
_cell_volume   505.92481938
_cell_formula_units_Z   4
loop_
 _symmetry_equiv_pos_site_id
 _symmetry_equiv_pos_as_xyz
  1  'x, y, z'
  2  '-x, -y, -z'
  3  '-x+1/2, -y, z+1/2'
  4  'x+1/2, y, -z+1/2'
  5  'x+1/2, -y+1/2, -z+1/2'
  6  '-x+1/2, y+1/2, z+1/2'
  7  '-x, y+1/2, -z'
  8  'x, -y+1/2, z'
loop_
 _atom_site_type_symbol
 _atom_site_label
 _atom_site_symmetry_multiplicity
 _atom_site_fract_x
 _atom_site_fract_y
 _atom_site_fract_z
 _atom_site_occupancy
  Cs  Cs0  4  0.01195032  0.75000000  0.68874646  1
  Mg  Mg1  4  0.16639714  0.25000000  0.90154028  1
  P  P2  4  0.20968710  0.75000000  0.07064752  1
  O  O3  8  0.24469703  0.02633029  0.48739063  1
  O  O4  4  0.04401268  0.75000000  0.09663560  1
  O  O5  4  0.20571057  0.25000000  0.70715253  1
