# generated using pymatgen
data_CsNiPO4
_symmetry_space_group_name_H-M   Pnma
_cell_length_a   9.30543364
_cell_length_b   5.50152882
_cell_length_c   9.65488007
_cell_angle_alpha   90.00000000
_cell_angle_beta   90.00000000
_cell_angle_gamma   90.00000000
_symmetry_Int_Tables_number   62
_chemical_formula_structural   CsNiPO4
_chemical_formula_sum   'Cs4 Ni4 P4 O16'
_cell_volume   494.27300544
_cell_formula_units_Z   4
loop_
 _symmetry_equiv_pos_site_id
 _symmetry_equiv_pos_as_xyz
  1  'x, y, z'
  2  '-x, -y, -z'
  3  '-x+1/2, -y, z+1/2'
  4  'x+1/2, y, -z+1/2'
  5  'x+1/2, -y+1/2, -z+1/2'
  6  '-x+1/2, y+1/2, z+1/2'
  7  '-x, y+1/2, -z'
  8  'x, -y+1/2, z'
loop_
 _atom_site_type_symbol
 _atom_site_label
 _atom_site_symmetry_multiplicity
 _atom_site_fract_x
 _atom_site_fract_y
 _atom_site_fract_z
 _atom_site_occupancy
  Cs  Cs0  4  0.01123408  0.75000000  0.68753150  1
  Ni  Ni1  4  0.15518883  0.25000000  0.90786459  1
  P  P2  4  0.21766557  0.75000000  0.07338602  1
  O  O3  8  0.23765392  0.02096666  0.48868139  1
  O  O4  4  0.05423208  0.75000000  0.10201044  1
  O  O5  4  0.19441986  0.25000000  0.70895252  1
