# generated using pymatgen
data_CsSbS2
_symmetry_space_group_name_H-M   C2/c
_cell_length_a   9.41550958
_cell_length_b   10.78051879
_cell_length_c   6.99221487
_cell_angle_alpha   90.00000000
_cell_angle_beta   119.66378126
_cell_angle_gamma   90.00000000
_symmetry_Int_Tables_number   15
_chemical_formula_structural   CsSbS2
_chemical_formula_sum   'Cs4 Sb4 S8'
_cell_volume   616.72323925
_cell_formula_units_Z   4
loop_
 _symmetry_equiv_pos_site_id
 _symmetry_equiv_pos_as_xyz
  1  'x, y, z'
  2  '-x, -y, -z'
  3  '-x, y, -z+1/2'
  4  'x, -y, z+1/2'
  5  'x+1/2, y+1/2, z'
  6  '-x+1/2, -y+1/2, -z'
  7  '-x+1/2, y+1/2, -z+1/2'
  8  'x+1/2, -y+1/2, z+1/2'
loop_
 _atom_site_type_symbol
 _atom_site_label
 _atom_site_symmetry_multiplicity
 _atom_site_fract_x
 _atom_site_fract_y
 _atom_site_fract_z
 _atom_site_occupancy
  Cs  Cs0  4  0.00000000  0.14952339  0.25000000  1
  Sb  Sb1  4  0.00000000  0.42772504  0.75000000  1
  S  S2  8  0.18905633  0.43348296  0.20794709  1
