# generated using pymatgen
data_CsSb2PO8
_symmetry_space_group_name_H-M   C2/c
_cell_length_a   12.97112420
_cell_length_b   7.27407238
_cell_length_c   15.29867605
_cell_angle_alpha   90.00000000
_cell_angle_beta   97.37185385
_cell_angle_gamma   90.00000000
_symmetry_Int_Tables_number   15
_chemical_formula_structural   CsSb2PO8
_chemical_formula_sum   'Cs8 Sb16 P8 O64'
_cell_volume   1431.54308518
_cell_formula_units_Z   8
loop_
 _symmetry_equiv_pos_site_id
 _symmetry_equiv_pos_as_xyz
  1  'x, y, z'
  2  '-x, -y, -z'
  3  '-x, y, -z+1/2'
  4  'x, -y, z+1/2'
  5  'x+1/2, y+1/2, z'
  6  '-x+1/2, -y+1/2, -z'
  7  '-x+1/2, y+1/2, -z+1/2'
  8  'x+1/2, -y+1/2, z+1/2'
loop_
 _atom_site_type_symbol
 _atom_site_label
 _atom_site_symmetry_multiplicity
 _atom_site_fract_x
 _atom_site_fract_y
 _atom_site_fract_z
 _atom_site_occupancy
  Cs  Cs0  8  0.03126246  0.11893210  0.89041887  1
  Sb  Sb1  8  0.17755866  0.36963079  0.43653061  1
  Sb  Sb2  8  0.24994181  0.36896289  0.75438805  1
  P  P3  8  0.09833767  0.39338794  0.10789938  1
  O  O4  8  0.01710392  0.37689764  0.42999906  1
  O  O5  8  0.11469407  0.44659270  0.67567572  1
  O  O6  8  0.12770788  0.20573293  0.15286832  1
  O  O7  8  0.16458309  0.18677677  0.33984211  1
  O  O8  8  0.16514658  0.42467560  0.03183036  1
  O  O9  8  0.16996096  0.16401252  0.52386738  1
  O  O10  8  0.17529541  0.41846067  0.85754187  1
  O  O11  8  0.18700596  0.11881157  0.74778348  1
