# generated using pymatgen
data_Cu2PbO2
_symmetry_space_group_name_H-M   C2/c
_cell_length_a   8.25828990
_cell_length_b   8.36636905
_cell_length_c   6.08450643
_cell_angle_alpha   90.00000000
_cell_angle_beta   132.32229561
_cell_angle_gamma   90.00000000
_symmetry_Int_Tables_number   15
_chemical_formula_structural   Cu2PbO2
_chemical_formula_sum   'Cu8 Pb4 O8'
_cell_volume   310.82348237
_cell_formula_units_Z   4
loop_
 _symmetry_equiv_pos_site_id
 _symmetry_equiv_pos_as_xyz
  1  'x, y, z'
  2  '-x, -y, -z'
  3  '-x, y, -z+1/2'
  4  'x, -y, z+1/2'
  5  'x+1/2, y+1/2, z'
  6  '-x+1/2, -y+1/2, -z'
  7  '-x+1/2, y+1/2, -z+1/2'
  8  'x+1/2, -y+1/2, z+1/2'
loop_
 _atom_site_type_symbol
 _atom_site_label
 _atom_site_symmetry_multiplicity
 _atom_site_fract_x
 _atom_site_fract_y
 _atom_site_fract_z
 _atom_site_occupancy
  Cu  Cu0  4  0.00000000  0.50000000  0.00000000  1
  Cu  Cu1  4  0.25000000  0.25000000  0.50000000  1
  Pb  Pb2  4  0.00000000  0.12789740  0.75000000  1
  O  O3  8  0.21527019  0.06996260  0.29168818  1
