# generated using pymatgen
data_Cu3PS4
_symmetry_space_group_name_H-M   Pmn2_1
_cell_length_a   7.27584616
_cell_length_b   6.33502413
_cell_length_c   6.07051134
_cell_angle_alpha   90.00000000
_cell_angle_beta   90.00000000
_cell_angle_gamma   90.00000000
_symmetry_Int_Tables_number   31
_chemical_formula_structural   Cu3PS4
_chemical_formula_sum   'Cu6 P2 S8'
_cell_volume   279.80602123
_cell_formula_units_Z   2
loop_
 _symmetry_equiv_pos_site_id
 _symmetry_equiv_pos_as_xyz
  1  'x, y, z'
  2  '-x+1/2, -y, z+1/2'
  3  '-x, y, z'
  4  'x+1/2, -y, z+1/2'
loop_
 _atom_site_type_symbol
 _atom_site_label
 _atom_site_symmetry_multiplicity
 _atom_site_fract_x
 _atom_site_fract_y
 _atom_site_fract_z
 _atom_site_occupancy
  Cu  Cu0  4  0.24668244  0.82436577  0.01007036  1
  Cu  Cu1  2  0.00000000  0.65252561  0.50029728  1
  P  P2  2  0.00000000  0.32620486  0.99992143  1
  S  S3  4  0.23690541  0.16759798  0.88437207  1
  S  S4  2  0.00000000  0.32138253  0.34552998  1
  S  S5  2  0.00000000  0.63581886  0.87864365  1
