# generated using pymatgen
data_CuH2ClO
_symmetry_space_group_name_H-M   Cmcm
_cell_length_a   8.42031903
_cell_length_b   7.86865658
_cell_length_c   7.82703885
_cell_angle_alpha   90.00000000
_cell_angle_beta   90.00000000
_cell_angle_gamma   90.00000000
_symmetry_Int_Tables_number   63
_chemical_formula_structural   CuH2ClO
_chemical_formula_sum   'Cu8 H16 Cl8 O8'
_cell_volume   518.59297258
_cell_formula_units_Z   8
loop_
 _symmetry_equiv_pos_site_id
 _symmetry_equiv_pos_as_xyz
  1  'x, y, z'
  2  '-x, -y, -z'
  3  '-x, -y, z+1/2'
  4  'x, y, -z+1/2'
  5  'x, -y, -z'
  6  '-x, y, z'
  7  '-x, y, -z+1/2'
  8  'x, -y, z+1/2'
  9  'x+1/2, y+1/2, z'
  10  '-x+1/2, -y+1/2, -z'
  11  '-x+1/2, -y+1/2, z+1/2'
  12  'x+1/2, y+1/2, -z+1/2'
  13  'x+1/2, -y+1/2, -z'
  14  '-x+1/2, y+1/2, z'
  15  '-x+1/2, y+1/2, -z+1/2'
  16  'x+1/2, -y+1/2, z+1/2'
loop_
 _atom_site_type_symbol
 _atom_site_label
 _atom_site_symmetry_multiplicity
 _atom_site_fract_x
 _atom_site_fract_y
 _atom_site_fract_z
 _atom_site_occupancy
  Cu  Cu0  4  0.00000000  0.00000000  0.00000000  1
  Cu  Cu1  4  0.00000000  0.41947024  0.75000000  1
  H  H2  16  0.09270973  0.29709860  0.07666422  1
  Cl  Cl3  8  0.23824715  0.46623734  0.25000000  1
  O  O4  8  0.00000000  0.24747388  0.01585402  1
