# generated using pymatgen
data_DyAlO3
_symmetry_space_group_name_H-M   P6_3cm
_cell_length_a   5.98410960
_cell_length_b   5.98410960
_cell_length_c   11.55451870
_cell_angle_alpha   90.00000000
_cell_angle_beta   90.00000000
_cell_angle_gamma   120.00000000
_symmetry_Int_Tables_number   185
_chemical_formula_structural   DyAlO3
_chemical_formula_sum   'Dy6 Al6 O18'
_cell_volume   358.32868039
_cell_formula_units_Z   6
loop_
 _symmetry_equiv_pos_site_id
 _symmetry_equiv_pos_as_xyz
  1  'x, y, z'
  2  'x-y, x, z+1/2'
  3  '-y, x-y, z'
  4  '-x, -y, z+1/2'
  5  '-x+y, -x, z'
  6  'y, -x+y, z+1/2'
  7  'y, x, z'
  8  'x, x-y, z+1/2'
  9  'x-y, -y, z'
  10  '-y, -x, z+1/2'
  11  '-x, -x+y, z'
  12  '-x+y, y, z+1/2'
loop_
 _atom_site_type_symbol
 _atom_site_label
 _atom_site_symmetry_multiplicity
 _atom_site_fract_x
 _atom_site_fract_y
 _atom_site_fract_z
 _atom_site_occupancy
  Dy  Dy0  4  0.33333333  0.66666667  0.23006778  1
  Dy  Dy1  2  0.00000000  0.00000000  0.27266713  1
  Al  Al2  6  0.00000000  0.33463989  0.99721321  1
  O  O3  6  0.00000000  0.30649109  0.15467273  1
  O  O4  6  0.00000000  0.35947204  0.84014420  1
  O  O5  4  0.33333333  0.66666667  0.01238679  1
  O  O6  2  0.00000000  0.00000000  0.47762164  1
