# generated using pymatgen
data_DyErO3
_symmetry_space_group_name_H-M   P6_3cm
_cell_length_a   6.38860183
_cell_length_b   6.38860183
_cell_length_c   12.67707406
_cell_angle_alpha   90.00000000
_cell_angle_beta   90.00000000
_cell_angle_gamma   120.00000000
_symmetry_Int_Tables_number   185
_chemical_formula_structural   DyErO3
_chemical_formula_sum   'Dy6 Er6 O18'
_cell_volume   448.08592535
_cell_formula_units_Z   6
loop_
 _symmetry_equiv_pos_site_id
 _symmetry_equiv_pos_as_xyz
  1  'x, y, z'
  2  'x-y, x, z+1/2'
  3  '-y, x-y, z'
  4  '-x, -y, z+1/2'
  5  '-x+y, -x, z'
  6  'y, -x+y, z+1/2'
  7  'y, x, z'
  8  'x, x-y, z+1/2'
  9  'x-y, -y, z'
  10  '-y, -x, z+1/2'
  11  '-x, -x+y, z'
  12  '-x+y, y, z+1/2'
loop_
 _atom_site_type_symbol
 _atom_site_label
 _atom_site_symmetry_multiplicity
 _atom_site_fract_x
 _atom_site_fract_y
 _atom_site_fract_z
 _atom_site_occupancy
  Dy  Dy0  4  0.33333333  0.66666667  0.23114878  1
  Dy  Dy1  2  0.00000000  0.00000000  0.26487007  1
  Er  Er2  6  0.00000000  0.33315021  0.99625302  1
  O  O3  6  0.00000000  0.30465938  0.16956782  1
  O  O4  6  0.00000000  0.36515526  0.82485558  1
  O  O5  4  0.33333333  0.66666667  0.02485435  1
  O  O6  2  0.00000000  0.00000000  0.46238220  1
