# generated using pymatgen
data_DyGaO3
_symmetry_space_group_name_H-M   P6_3cm
_cell_length_a   6.12482311
_cell_length_b   6.12482311
_cell_length_c   11.71576311
_cell_angle_alpha   90.00000000
_cell_angle_beta   90.00000000
_cell_angle_gamma   120.00000000
_symmetry_Int_Tables_number   185
_chemical_formula_structural   DyGaO3
_chemical_formula_sum   'Dy6 Ga6 O18'
_cell_volume   380.61711574
_cell_formula_units_Z   6
loop_
 _symmetry_equiv_pos_site_id
 _symmetry_equiv_pos_as_xyz
  1  'x, y, z'
  2  'x-y, x, z+1/2'
  3  '-y, x-y, z'
  4  '-x, -y, z+1/2'
  5  '-x+y, -x, z'
  6  'y, -x+y, z+1/2'
  7  'y, x, z'
  8  'x, x-y, z+1/2'
  9  'x-y, -y, z'
  10  '-y, -x, z+1/2'
  11  '-x, -x+y, z'
  12  '-x+y, y, z+1/2'
loop_
 _atom_site_type_symbol
 _atom_site_label
 _atom_site_symmetry_multiplicity
 _atom_site_fract_x
 _atom_site_fract_y
 _atom_site_fract_z
 _atom_site_occupancy
  Dy  Dy0  4  0.33333333  0.66666667  0.22938455  1
  Dy  Dy1  2  0.00000000  0.00000000  0.27135166  1
  Ga  Ga2  6  0.00000000  0.33432889  0.99678446  1
  O  O3  6  0.00000000  0.30623393  0.15964571  1
  O  O4  6  0.00000000  0.36016724  0.83495522  1
  O  O5  4  0.33333333  0.66666667  0.01669180  1
  O  O6  2  0.00000000  0.00000000  0.47362746  1
