# generated using pymatgen
data_EuTaO4
_symmetry_space_group_name_H-M   P2/c
_cell_length_a   5.24813711
_cell_length_b   5.61987309
_cell_length_c   5.42701488
_cell_angle_alpha   90.00000000
_cell_angle_beta   96.72343329
_cell_angle_gamma   90.00000000
_symmetry_Int_Tables_number   13
_chemical_formula_structural   EuTaO4
_chemical_formula_sum   'Eu2 Ta2 O8'
_cell_volume   158.96285989
_cell_formula_units_Z   2
loop_
 _symmetry_equiv_pos_site_id
 _symmetry_equiv_pos_as_xyz
  1  'x, y, z'
  2  '-x, -y, -z'
  3  '-x, y, -z+1/2'
  4  'x, -y, z+1/2'
loop_
 _atom_site_type_symbol
 _atom_site_label
 _atom_site_symmetry_multiplicity
 _atom_site_fract_x
 _atom_site_fract_y
 _atom_site_fract_z
 _atom_site_occupancy
  Eu  Eu0  2  0.00000000  0.22930623  0.75000000  1
  Ta  Ta1  2  0.50000000  0.31451506  0.25000000  1
  O  O2  4  0.25520965  0.09235987  0.10853278  1
  O  O3  4  0.27579642  0.43572439  0.49754840  1
