# generated using pymatgen
data_FeBr3
_symmetry_space_group_name_H-M   P2_1/c
_cell_length_a   8.06510926
_cell_length_b   7.43293533
_cell_length_c   11.09479007
_cell_angle_alpha   90.00000000
_cell_angle_beta   97.76066532
_cell_angle_gamma   90.00000000
_symmetry_Int_Tables_number   14
_chemical_formula_structural   FeBr3
_chemical_formula_sum   'Fe4 Br12'
_cell_volume   659.01237560
_cell_formula_units_Z   4
loop_
 _symmetry_equiv_pos_site_id
 _symmetry_equiv_pos_as_xyz
  1  'x, y, z'
  2  '-x, -y, -z'
  3  '-x, y+1/2, -z+1/2'
  4  'x, -y+1/2, z+1/2'
loop_
 _atom_site_type_symbol
 _atom_site_label
 _atom_site_symmetry_multiplicity
 _atom_site_fract_x
 _atom_site_fract_y
 _atom_site_fract_z
 _atom_site_occupancy
  Fe  Fe0  4  0.18743385  0.08891805  0.54955489  1
  Br  Br1  4  0.07641094  0.56947933  0.85893919  1
  Br  Br2  4  0.25371535  0.11851591  0.01414967  1
  Br  Br3  4  0.39511204  0.57050962  0.16278956  1
