# generated using pymatgen
data_FeHO2
_symmetry_space_group_name_H-M   Cm
_cell_length_a   7.52866635
_cell_length_b   6.76507762
_cell_length_c   4.13033544
_cell_angle_alpha   90.00000000
_cell_angle_beta   112.56618539
_cell_angle_gamma   90.00000000
_symmetry_Int_Tables_number   8
_chemical_formula_structural   FeHO2
_chemical_formula_sum   'Fe4 H4 O8'
_cell_volume   194.25999051
_cell_formula_units_Z   4
loop_
 _symmetry_equiv_pos_site_id
 _symmetry_equiv_pos_as_xyz
  1  'x, y, z'
  2  'x, -y, z'
  3  'x+1/2, y+1/2, z'
  4  'x+1/2, -y+1/2, z'
loop_
 _atom_site_type_symbol
 _atom_site_label
 _atom_site_symmetry_multiplicity
 _atom_site_fract_x
 _atom_site_fract_y
 _atom_site_fract_z
 _atom_site_occupancy
  Fe  Fe0  4  0.24388708  0.25043184  0.28269703  1
  H  H1  2  0.00964792  0.00000000  0.27563411  1
  H  H2  2  0.46613229  0.50000000  0.74036134  1
  O  O3  4  0.48323531  0.11109174  0.23646385  1
  O  O4  2  0.09828393  0.00000000  0.14055091  1
  O  O5  2  0.38105582  0.50000000  0.48035159  1
