# generated using pymatgen
data_Ga2S3
_symmetry_space_group_name_H-M   C2/m
_cell_length_a   6.20124207
_cell_length_b   10.88104716
_cell_length_c   6.27759347
_cell_angle_alpha   90.00000000
_cell_angle_beta   110.10702345
_cell_angle_gamma   90.00000000
_symmetry_Int_Tables_number   12
_chemical_formula_structural   Ga2S3
_chemical_formula_sum   'Ga8 S12'
_cell_volume   397.77021623
_cell_formula_units_Z   4
loop_
 _symmetry_equiv_pos_site_id
 _symmetry_equiv_pos_as_xyz
  1  'x, y, z'
  2  '-x, -y, -z'
  3  '-x, y, -z'
  4  'x, -y, z'
  5  'x+1/2, y+1/2, z'
  6  '-x+1/2, -y+1/2, -z'
  7  '-x+1/2, y+1/2, -z'
  8  'x+1/2, -y+1/2, z'
loop_
 _atom_site_type_symbol
 _atom_site_label
 _atom_site_symmetry_multiplicity
 _atom_site_fract_x
 _atom_site_fract_y
 _atom_site_fract_z
 _atom_site_occupancy
  Ga  Ga0  4  0.00000000  0.35449430  0.50000000  1
  Ga  Ga1  2  0.00000000  0.00000000  0.50000000  1
  Ga  Ga2  2  0.00000000  0.50000000  0.00000000  1
  S  S3  8  0.24041009  0.34239103  0.27627441  1
  S  S4  4  0.24566353  0.50000000  0.76080105  1
