# generated using pymatgen
data_Ga2Se3
_symmetry_space_group_name_H-M   Cc
_cell_length_a   11.94215557
_cell_length_b   6.86196570
_cell_length_c   7.48471436
_cell_angle_alpha   90.00000000
_cell_angle_beta   120.78260533
_cell_angle_gamma   90.00000000
_symmetry_Int_Tables_number   9
_chemical_formula_structural   Ga2Se3
_chemical_formula_sum   'Ga8 Se12'
_cell_volume   526.93610535
_cell_formula_units_Z   4
loop_
 _symmetry_equiv_pos_site_id
 _symmetry_equiv_pos_as_xyz
  1  'x, y, z'
  2  'x, -y, z+1/2'
  3  'x+1/2, y+1/2, z'
  4  'x+1/2, -y+1/2, z+1/2'
loop_
 _atom_site_type_symbol
 _atom_site_label
 _atom_site_symmetry_multiplicity
 _atom_site_fract_x
 _atom_site_fract_y
 _atom_site_fract_z
 _atom_site_occupancy
  Ga  Ga0  4  0.29739683  0.43467523  0.88051372  1
  Ga  Ga1  4  0.45721264  0.09785764  0.37093332  1
  Se  Se2  4  0.00366506  0.08736192  0.02020151  1
  Se  Se3  4  0.15921297  0.40215569  0.49442060  1
  Se  Se4  4  0.32151320  0.08358677  0.98492813  1
