# generated using pymatgen
data_GeO2
_symmetry_space_group_name_H-M   Pbcn
_cell_length_a   4.37518943
_cell_length_b   5.41729551
_cell_length_c   4.81571673
_cell_angle_alpha   90.00000000
_cell_angle_beta   90.00000000
_cell_angle_gamma   90.00000000
_symmetry_Int_Tables_number   60
_chemical_formula_structural   GeO2
_chemical_formula_sum   'Ge4 O8'
_cell_volume   114.14064468
_cell_formula_units_Z   4
loop_
 _symmetry_equiv_pos_site_id
 _symmetry_equiv_pos_as_xyz
  1  'x, y, z'
  2  '-x, -y, -z'
  3  '-x+1/2, -y+1/2, z+1/2'
  4  'x+1/2, y+1/2, -z+1/2'
  5  'x+1/2, -y+1/2, -z'
  6  '-x+1/2, y+1/2, z'
  7  '-x, y, -z+1/2'
  8  'x, -y, z+1/2'
loop_
 _atom_site_type_symbol
 _atom_site_label
 _atom_site_symmetry_multiplicity
 _atom_site_fract_x
 _atom_site_fract_y
 _atom_site_fract_z
 _atom_site_occupancy
  Ge  Ge0  4  0.00000000  0.15905430  0.75000000  1
  O  O1  8  0.23200347  0.11240870  0.07826000  1
