# generated using pymatgen
data_H2PbI2O7
_symmetry_space_group_name_H-M   C2/c
_cell_length_a   13.06308533
_cell_length_b   8.03137250
_cell_length_c   9.01119689
_cell_angle_alpha   90.00000000
_cell_angle_beta   127.86479063
_cell_angle_gamma   90.00000000
_symmetry_Int_Tables_number   15
_chemical_formula_structural   H2PbI2O7
_chemical_formula_sum   'H8 Pb4 I8 O28'
_cell_volume   746.36098010
_cell_formula_units_Z   4
loop_
 _symmetry_equiv_pos_site_id
 _symmetry_equiv_pos_as_xyz
  1  'x, y, z'
  2  '-x, -y, -z'
  3  '-x, y, -z+1/2'
  4  'x, -y, z+1/2'
  5  'x+1/2, y+1/2, z'
  6  '-x+1/2, -y+1/2, -z'
  7  '-x+1/2, y+1/2, -z+1/2'
  8  'x+1/2, -y+1/2, z+1/2'
loop_
 _atom_site_type_symbol
 _atom_site_label
 _atom_site_symmetry_multiplicity
 _atom_site_fract_x
 _atom_site_fract_y
 _atom_site_fract_z
 _atom_site_occupancy
  H  H0  8  0.02050191  0.21025865  0.18281987  1
  Pb  Pb1  4  0.00000000  0.18337923  0.75000000  1
  I  I2  8  0.18174177  0.48983605  0.67018747  1
  O  O3  8  0.06728409  0.33133795  0.06104177  1
  O  O4  8  0.16534294  0.10255566  0.68737334  1
  O  O5  8  0.16536723  0.43542311  0.85275497  1
  O  O6  4  0.00000000  0.13811978  0.25000000  1
