# generated using pymatgen
data_H2S
_symmetry_space_group_name_H-M   Cmc2_1
_cell_length_a   5.75921091
_cell_length_b   9.70798024
_cell_length_c   8.34601298
_cell_angle_alpha   90.00000000
_cell_angle_beta   90.00000000
_cell_angle_gamma   90.00000000
_symmetry_Int_Tables_number   36
_chemical_formula_structural   H2S
_chemical_formula_sum   'H16 S8'
_cell_volume   466.62813722
_cell_formula_units_Z   8
loop_
 _symmetry_equiv_pos_site_id
 _symmetry_equiv_pos_as_xyz
  1  'x, y, z'
  2  '-x, -y, z+1/2'
  3  '-x, y, z'
  4  'x, -y, z+1/2'
  5  'x+1/2, y+1/2, z'
  6  '-x+1/2, -y+1/2, z+1/2'
  7  '-x+1/2, y+1/2, z'
  8  'x+1/2, -y+1/2, z+1/2'
loop_
 _atom_site_type_symbol
 _atom_site_label
 _atom_site_symmetry_multiplicity
 _atom_site_fract_x
 _atom_site_fract_y
 _atom_site_fract_z
 _atom_site_occupancy
  H  H0  8  0.16862338  0.29123381  0.96618381  1
  H  H1  4  0.00000000  0.31242565  0.68665637  1
  H  H2  4  0.00000000  0.44319587  0.50863876  1
  S  S3  4  0.00000000  0.20723044  0.02386862  1
  S  S4  4  0.00000000  0.45131137  0.67047209  1
