# generated using pymatgen
data_H2Se
_symmetry_space_group_name_H-M   Cmc2_1
_cell_length_a   6.43299707
_cell_length_b   7.18684927
_cell_length_c   9.01561955
_cell_angle_alpha   90.00000000
_cell_angle_beta   90.00000000
_cell_angle_gamma   90.00000000
_symmetry_Int_Tables_number   36
_chemical_formula_structural   H2Se
_chemical_formula_sum   'H16 Se8'
_cell_volume   416.81896138
_cell_formula_units_Z   8
loop_
 _symmetry_equiv_pos_site_id
 _symmetry_equiv_pos_as_xyz
  1  'x, y, z'
  2  '-x, -y, z+1/2'
  3  '-x, y, z'
  4  'x, -y, z+1/2'
  5  'x+1/2, y+1/2, z'
  6  '-x+1/2, -y+1/2, z+1/2'
  7  '-x+1/2, y+1/2, z'
  8  'x+1/2, -y+1/2, z+1/2'
loop_
 _atom_site_type_symbol
 _atom_site_label
 _atom_site_symmetry_multiplicity
 _atom_site_fract_x
 _atom_site_fract_y
 _atom_site_fract_z
 _atom_site_occupancy
  H  H0  8  0.16634343  0.48883707  0.60037892  1
  H  H1  4  0.00000000  0.08928611  0.87908310  1
  H  H2  4  0.00000000  0.21201268  0.35681362  1
  Se  Se3  4  0.00000000  0.04671569  0.25400310  1
  Se  Se4  4  0.00000000  0.47460397  0.98733992  1
