# generated using pymatgen
data_InAsO3
_symmetry_space_group_name_H-M   P2_1/c
_cell_length_a   4.48177327
_cell_length_b   12.00341419
_cell_length_c   5.75490653
_cell_angle_alpha   90.00000000
_cell_angle_beta   109.03933928
_cell_angle_gamma   90.00000000
_symmetry_Int_Tables_number   14
_chemical_formula_structural   InAsO3
_chemical_formula_sum   'In4 As4 O12'
_cell_volume   292.65788229
_cell_formula_units_Z   4
loop_
 _symmetry_equiv_pos_site_id
 _symmetry_equiv_pos_as_xyz
  1  'x, y, z'
  2  '-x, -y, -z'
  3  '-x, y+1/2, -z+1/2'
  4  'x, -y+1/2, z+1/2'
loop_
 _atom_site_type_symbol
 _atom_site_label
 _atom_site_symmetry_multiplicity
 _atom_site_fract_x
 _atom_site_fract_y
 _atom_site_fract_z
 _atom_site_occupancy
  In  In0  4  0.02118918  0.14524051  0.09186287  1
  As  As1  4  0.31871732  0.07290673  0.68403481  1
  O  O2  4  0.01711812  0.53446146  0.72345564  1
  O  O3  4  0.09560571  0.18689760  0.47457948  1
  O  O4  4  0.49696256  0.64209956  0.52422194  1
