# generated using pymatgen
data_K2CoCl4
_symmetry_space_group_name_H-M   Pna2_1
_cell_length_a   8.98967659
_cell_length_b   12.79170926
_cell_length_c   7.26483171
_cell_angle_alpha   90.00000000
_cell_angle_beta   90.00000000
_cell_angle_gamma   90.00000000
_symmetry_Int_Tables_number   33
_chemical_formula_structural   K2CoCl4
_chemical_formula_sum   'K8 Co4 Cl16'
_cell_volume   835.40718500
_cell_formula_units_Z   4
loop_
 _symmetry_equiv_pos_site_id
 _symmetry_equiv_pos_as_xyz
  1  'x, y, z'
  2  '-x, -y, z+1/2'
  3  '-x+1/2, y+1/2, z+1/2'
  4  'x+1/2, -y+1/2, z'
loop_
 _atom_site_type_symbol
 _atom_site_label
 _atom_site_symmetry_multiplicity
 _atom_site_fract_x
 _atom_site_fract_y
 _atom_site_fract_z
 _atom_site_occupancy
  K  K0  4  0.01659053  0.67925664  0.23937683  1
  K  K1  4  0.12051007  0.92935970  0.74316655  1
  Co  Co2  4  0.21740796  0.57496277  0.75729177  1
  Cl  Cl3  4  0.03030899  0.42514893  0.28962383  1
  Cl  Cl4  4  0.17535392  0.14710995  0.50806831  1
  Cl  Cl5  4  0.18473341  0.91172538  0.24590128  1
  Cl  Cl6  4  0.19347831  0.16068997  0.01057245  1
