# generated using pymatgen
data_K2PHO4
_symmetry_space_group_name_H-M   P2_1
_cell_length_a   5.91972325
_cell_length_b   7.67179414
_cell_length_c   6.06790237
_cell_angle_alpha   90.00000000
_cell_angle_beta   118.40611749
_cell_angle_gamma   90.00000000
_symmetry_Int_Tables_number   4
_chemical_formula_structural   K2PHO4
_chemical_formula_sum   'K4 P2 H2 O8'
_cell_volume   242.39354835
_cell_formula_units_Z   2
loop_
 _symmetry_equiv_pos_site_id
 _symmetry_equiv_pos_as_xyz
  1  'x, y, z'
  2  '-x, y+1/2, -z'
loop_
 _atom_site_type_symbol
 _atom_site_label
 _atom_site_symmetry_multiplicity
 _atom_site_fract_x
 _atom_site_fract_y
 _atom_site_fract_z
 _atom_site_occupancy
  K  K0  2  0.00408745  0.99637064  0.99465999  1
  K  K1  2  0.36996337  0.24667349  0.73911747  1
  P  P2  2  0.30884127  0.76077356  0.61273633  1
  H  H3  2  0.04448930  0.52614419  0.53915386  1
  O  O4  2  0.18121668  0.91898012  0.67072601  1
  O  O5  2  0.19565099  0.58724765  0.68691606  1
  O  O6  2  0.22187344  0.74748731  0.33168367  1
  O  O7  2  0.40097451  0.25512677  0.21633852  1
