# generated using pymatgen
data_K3AsO4
_symmetry_space_group_name_H-M   Pmn2_1
_cell_length_a   7.69980577
_cell_length_b   6.09529629
_cell_length_c   5.77703890
_cell_angle_alpha   90.00000000
_cell_angle_beta   90.00000000
_cell_angle_gamma   90.00000000
_symmetry_Int_Tables_number   31
_chemical_formula_structural   K3AsO4
_chemical_formula_sum   'K6 As2 O8'
_cell_volume   271.13144174
_cell_formula_units_Z   2
loop_
 _symmetry_equiv_pos_site_id
 _symmetry_equiv_pos_as_xyz
  1  'x, y, z'
  2  '-x+1/2, -y, z+1/2'
  3  '-x, y, z'
  4  'x+1/2, -y, z+1/2'
loop_
 _atom_site_type_symbol
 _atom_site_label
 _atom_site_symmetry_multiplicity
 _atom_site_fract_x
 _atom_site_fract_y
 _atom_site_fract_z
 _atom_site_occupancy
  K  K0  4  0.24969911  0.71432071  0.48876335  1
  K  K1  2  0.00000000  0.19715288  0.49223038  1
  As  As2  2  0.00000000  0.71210777  0.00274940  1
  O  O3  4  0.18118688  0.87309326  0.01912808  1
  O  O4  2  0.00000000  0.52592961  0.22748078  1
  O  O5  2  0.00000000  0.55451480  0.75495106  1
