# generated using pymatgen
data_K3PO4
_symmetry_space_group_name_H-M   Pnma
_cell_length_a   11.38770097
_cell_length_b   8.20302654
_cell_length_c   5.99957006
_cell_angle_alpha   90.00000000
_cell_angle_beta   90.00000000
_cell_angle_gamma   90.00000000
_symmetry_Int_Tables_number   62
_chemical_formula_structural   K3PO4
_chemical_formula_sum   'K12 P4 O16'
_cell_volume   560.44151747
_cell_formula_units_Z   4
loop_
 _symmetry_equiv_pos_site_id
 _symmetry_equiv_pos_as_xyz
  1  'x, y, z'
  2  '-x, -y, -z'
  3  '-x+1/2, -y, z+1/2'
  4  'x+1/2, y, -z+1/2'
  5  'x+1/2, -y+1/2, -z+1/2'
  6  '-x+1/2, y+1/2, z+1/2'
  7  '-x, y+1/2, -z'
  8  'x, -y+1/2, z'
loop_
 _atom_site_type_symbol
 _atom_site_label
 _atom_site_symmetry_multiplicity
 _atom_site_fract_x
 _atom_site_fract_y
 _atom_site_fract_z
 _atom_site_occupancy
  K  K0  8  0.14435818  0.50856963  0.18959178  1
  K  K1  4  0.07078889  0.75000000  0.63670191  1
  P  P2  4  0.11573261  0.25000000  0.77787929  1
  O  O3  8  0.11009389  0.09351627  0.62982757  1
  O  O4  4  0.00989804  0.25000000  0.94630983  1
  O  O5  4  0.23251556  0.25000000  0.91610380  1
