# generated using pymatgen
data_KH2ClO
_symmetry_space_group_name_H-M   Cmcm
_cell_length_a   8.62903750
_cell_length_b   9.10695410
_cell_length_c   8.92932763
_cell_angle_alpha   90.00000000
_cell_angle_beta   90.00000000
_cell_angle_gamma   90.00000000
_symmetry_Int_Tables_number   63
_chemical_formula_structural   KH2ClO
_chemical_formula_sum   'K8 H16 Cl8 O8'
_cell_volume   701.70450026
_cell_formula_units_Z   8
loop_
 _symmetry_equiv_pos_site_id
 _symmetry_equiv_pos_as_xyz
  1  'x, y, z'
  2  '-x, -y, -z'
  3  '-x, -y, z+1/2'
  4  'x, y, -z+1/2'
  5  'x, -y, -z'
  6  '-x, y, z'
  7  '-x, y, -z+1/2'
  8  'x, -y, z+1/2'
  9  'x+1/2, y+1/2, z'
  10  '-x+1/2, -y+1/2, -z'
  11  '-x+1/2, -y+1/2, z+1/2'
  12  'x+1/2, y+1/2, -z+1/2'
  13  'x+1/2, -y+1/2, -z'
  14  '-x+1/2, y+1/2, z'
  15  '-x+1/2, y+1/2, -z+1/2'
  16  'x+1/2, -y+1/2, z+1/2'
loop_
 _atom_site_type_symbol
 _atom_site_label
 _atom_site_symmetry_multiplicity
 _atom_site_fract_x
 _atom_site_fract_y
 _atom_site_fract_z
 _atom_site_occupancy
  K  K0  4  0.00000000  0.00000000  0.00000000  1
  K  K1  4  0.00000000  0.34941333  0.25000000  1
  H  H2  16  0.09056712  0.32839825  0.60569289  1
  Cl  Cl3  8  0.23508016  0.08183979  0.25000000  1
  O  O4  8  0.00000000  0.29408834  0.54723536  1
