# generated using pymatgen
data_La2SnSe3O2
_symmetry_space_group_name_H-M   Pnma
_cell_length_a   6.02161134
_cell_length_b   20.14000075
_cell_length_c   5.99510173
_cell_angle_alpha   90.00000000
_cell_angle_beta   90.00000000
_cell_angle_gamma   90.00000000
_symmetry_Int_Tables_number   62
_chemical_formula_structural   La2SnSe3O2
_chemical_formula_sum   'La8 Sn4 Se12 O8'
_cell_volume   727.05750247
_cell_formula_units_Z   4
loop_
 _symmetry_equiv_pos_site_id
 _symmetry_equiv_pos_as_xyz
  1  'x, y, z'
  2  '-x, -y, -z'
  3  '-x+1/2, -y, z+1/2'
  4  'x+1/2, y, -z+1/2'
  5  'x+1/2, -y+1/2, -z+1/2'
  6  '-x+1/2, y+1/2, z+1/2'
  7  '-x, y+1/2, -z'
  8  'x, -y+1/2, z'
loop_
 _atom_site_type_symbol
 _atom_site_label
 _atom_site_symmetry_multiplicity
 _atom_site_fract_x
 _atom_site_fract_y
 _atom_site_fract_z
 _atom_site_occupancy
  La  La0  8  0.24686271  0.55879119  0.50355574  1
  Sn  Sn1  4  0.15348602  0.25000000  0.43047933  1
  Se  Se2  8  0.24092504  0.63062697  0.01214870  1
  Se  Se3  4  0.23000394  0.25000000  0.00154450  1
  O  O4  8  0.00097507  0.50051107  0.24864973  1
