# generated using pymatgen
data_La2SiS3O2
_symmetry_space_group_name_H-M   Pnma
_cell_length_a   5.81103044
_cell_length_b   18.09619368
_cell_length_c   5.93780798
_cell_angle_alpha   90.00000000
_cell_angle_beta   90.00000000
_cell_angle_gamma   90.00000000
_symmetry_Int_Tables_number   62
_chemical_formula_structural   La2SiS3O2
_chemical_formula_sum   'La8 Si4 S12 O8'
_cell_volume   624.40523458
_cell_formula_units_Z   4
loop_
 _symmetry_equiv_pos_site_id
 _symmetry_equiv_pos_as_xyz
  1  'x, y, z'
  2  '-x, -y, -z'
  3  '-x+1/2, -y, z+1/2'
  4  'x+1/2, y, -z+1/2'
  5  'x+1/2, -y+1/2, -z+1/2'
  6  '-x+1/2, y+1/2, z+1/2'
  7  '-x, y+1/2, -z'
  8  'x, -y+1/2, z'
loop_
 _atom_site_type_symbol
 _atom_site_label
 _atom_site_symmetry_multiplicity
 _atom_site_fract_x
 _atom_site_fract_y
 _atom_site_fract_z
 _atom_site_occupancy
  La  La0  8  0.24854801  0.06700379  0.00324255  1
  Si  Si1  4  0.14760039  0.75000000  0.89956453  1
  S  S2  8  0.24853527  0.64583484  0.01848625  1
  S  S3  4  0.23185548  0.25000000  0.05123314  1
  O  O4  8  0.00091915  0.00097825  0.74873359  1
