# generated using pymatgen
data_La2ZrS3O2
_symmetry_space_group_name_H-M   Pnma
_cell_length_a   5.82098730
_cell_length_b   19.84912743
_cell_length_c   5.81666398
_cell_angle_alpha   90.00000000
_cell_angle_beta   90.00000000
_cell_angle_gamma   90.00000000
_symmetry_Int_Tables_number   62
_chemical_formula_structural   La2ZrS3O2
_chemical_formula_sum   'La8 Zr4 S12 O8'
_cell_volume   672.06618994
_cell_formula_units_Z   4
loop_
 _symmetry_equiv_pos_site_id
 _symmetry_equiv_pos_as_xyz
  1  'x, y, z'
  2  '-x, -y, -z'
  3  '-x+1/2, -y, z+1/2'
  4  'x+1/2, y, -z+1/2'
  5  'x+1/2, -y+1/2, -z+1/2'
  6  '-x+1/2, y+1/2, z+1/2'
  7  '-x, y+1/2, -z'
  8  'x, -y+1/2, z'
loop_
 _atom_site_type_symbol
 _atom_site_label
 _atom_site_symmetry_multiplicity
 _atom_site_fract_x
 _atom_site_fract_y
 _atom_site_fract_z
 _atom_site_occupancy
  La  La0  8  0.24927237  0.06158292  0.99972749  1
  Zr  Zr1  4  0.14815519  0.75000000  0.93692601  1
  S  S2  8  0.24261388  0.13564276  0.51803198  1
  S  S3  4  0.22563418  0.75000000  0.52023988  1
  O  O4  8  0.00009677  0.00082671  0.24998637  1
