# generated using pymatgen
data_La3Se2NO
_symmetry_space_group_name_H-M   C2/m
_cell_length_a   16.28074817
_cell_length_b   4.16018877
_cell_length_c   10.26950251
_cell_angle_alpha   90.00000000
_cell_angle_beta   96.80601765
_cell_angle_gamma   90.00000000
_symmetry_Int_Tables_number   12
_chemical_formula_structural   La3Se2NO
_chemical_formula_sum   'La12 Se8 N4 O4'
_cell_volume   690.66193801
_cell_formula_units_Z   4
loop_
 _symmetry_equiv_pos_site_id
 _symmetry_equiv_pos_as_xyz
  1  'x, y, z'
  2  '-x, -y, -z'
  3  '-x, y, -z'
  4  'x, -y, z'
  5  'x+1/2, y+1/2, z'
  6  '-x+1/2, -y+1/2, -z'
  7  '-x+1/2, y+1/2, -z'
  8  'x+1/2, -y+1/2, z'
loop_
 _atom_site_type_symbol
 _atom_site_label
 _atom_site_symmetry_multiplicity
 _atom_site_fract_x
 _atom_site_fract_y
 _atom_site_fract_z
 _atom_site_occupancy
  La  La0  4  0.04231486  0.00000000  0.76431426  1
  La  La1  4  0.11073368  0.50000000  0.44939343  1
  La  La2  4  0.19799137  0.00000000  0.17344542  1
  Se  Se3  4  0.12811828  0.50000000  0.97498518  1
  Se  Se4  4  0.21113787  0.00000000  0.65133181  1
  N  N5  4  0.09926274  0.00000000  0.31229072  1
  O  O6  4  0.03240533  0.50000000  0.64133797  1
