# generated using pymatgen
data_LaBr3
_symmetry_space_group_name_H-M   Pnma
_cell_length_a   7.77220674
_cell_length_b   9.75625169
_cell_length_c   6.75543525
_cell_angle_alpha   90.00000000
_cell_angle_beta   90.00000000
_cell_angle_gamma   90.00000000
_symmetry_Int_Tables_number   62
_chemical_formula_structural   LaBr3
_chemical_formula_sum   'La4 Br12'
_cell_volume   512.24847670
_cell_formula_units_Z   4
loop_
 _symmetry_equiv_pos_site_id
 _symmetry_equiv_pos_as_xyz
  1  'x, y, z'
  2  '-x, -y, -z'
  3  '-x+1/2, -y, z+1/2'
  4  'x+1/2, y, -z+1/2'
  5  'x+1/2, -y+1/2, -z+1/2'
  6  '-x+1/2, y+1/2, z+1/2'
  7  '-x, y+1/2, -z'
  8  'x, -y+1/2, z'
loop_
 _atom_site_type_symbol
 _atom_site_label
 _atom_site_symmetry_multiplicity
 _atom_site_fract_x
 _atom_site_fract_y
 _atom_site_fract_z
 _atom_site_occupancy
  La  La0  4  0.12466153  0.75000000  0.45310870  1
  Br  Br1  8  0.17005834  0.06648109  0.66205669  1
  Br  Br2  4  0.03810716  0.25000000  0.14803332  1
