# generated using pymatgen
data_Li2MnF4
_symmetry_space_group_name_H-M   P2/c
_cell_length_a   5.23307934
_cell_length_b   3.22468170
_cell_length_c   10.48379946
_cell_angle_alpha   90.00000000
_cell_angle_beta   112.37429908
_cell_angle_gamma   90.00000000
_symmetry_Int_Tables_number   13
_chemical_formula_structural   Li2MnF4
_chemical_formula_sum   'Li4 Mn2 F8'
_cell_volume   163.59561585
_cell_formula_units_Z   2
loop_
 _symmetry_equiv_pos_site_id
 _symmetry_equiv_pos_as_xyz
  1  'x, y, z'
  2  '-x, -y, -z'
  3  '-x, y, -z+1/2'
  4  'x, -y, z+1/2'
loop_
 _atom_site_type_symbol
 _atom_site_label
 _atom_site_symmetry_multiplicity
 _atom_site_fract_x
 _atom_site_fract_y
 _atom_site_fract_z
 _atom_site_occupancy
  Li  Li0  4  0.34419405  0.01772286  0.57717958  1
  Mn  Mn1  2  0.00000000  0.48928117  0.25000000  1
  F  F2  4  0.23907243  0.48223745  0.12993138  1
  F  F3  4  0.25651031  0.01001991  0.87798970  1
