# generated using pymatgen
data_Li2PdF4
_symmetry_space_group_name_H-M   P2/c
_cell_length_a   5.31769341
_cell_length_b   3.21476988
_cell_length_c   10.72929806
_cell_angle_alpha   90.00000000
_cell_angle_beta   112.83498753
_cell_angle_gamma   90.00000000
_symmetry_Int_Tables_number   13
_chemical_formula_structural   Li2PdF4
_chemical_formula_sum   'Li4 Pd2 F8'
_cell_volume   169.04385002
_cell_formula_units_Z   2
loop_
 _symmetry_equiv_pos_site_id
 _symmetry_equiv_pos_as_xyz
  1  'x, y, z'
  2  '-x, -y, -z'
  3  '-x, y, -z+1/2'
  4  'x, -y, z+1/2'
loop_
 _atom_site_type_symbol
 _atom_site_label
 _atom_site_symmetry_multiplicity
 _atom_site_fract_x
 _atom_site_fract_y
 _atom_site_fract_z
 _atom_site_occupancy
  Li  Li0  4  0.15885972  0.03746190  0.42294415  1
  Pd  Pd1  2  0.50000000  0.46964810  0.75000000  1
  F  F2  4  0.23405759  0.02836516  0.11727666  1
  F  F3  4  0.25919382  0.46224333  0.87182869  1
