# generated using pymatgen
data_Li2PbO2
_symmetry_space_group_name_H-M   C2/c
_cell_length_a   7.80179423
_cell_length_b   8.77683476
_cell_length_c   5.83594826
_cell_angle_alpha   90.00000000
_cell_angle_beta   130.35827878
_cell_angle_gamma   90.00000000
_symmetry_Int_Tables_number   15
_chemical_formula_structural   Li2PbO2
_chemical_formula_sum   'Li8 Pb4 O8'
_cell_volume   304.51209360
_cell_formula_units_Z   4
loop_
 _symmetry_equiv_pos_site_id
 _symmetry_equiv_pos_as_xyz
  1  'x, y, z'
  2  '-x, -y, -z'
  3  '-x, y, -z+1/2'
  4  'x, -y, z+1/2'
  5  'x+1/2, y+1/2, z'
  6  '-x+1/2, -y+1/2, -z'
  7  '-x+1/2, y+1/2, -z+1/2'
  8  'x+1/2, -y+1/2, z+1/2'
loop_
 _atom_site_type_symbol
 _atom_site_label
 _atom_site_symmetry_multiplicity
 _atom_site_fract_x
 _atom_site_fract_y
 _atom_site_fract_z
 _atom_site_occupancy
  Li  Li0  4  0.00000000  0.50000000  0.00000000  1
  Li  Li1  4  0.25000000  0.25000000  0.50000000  1
  Pb  Pb2  4  0.00000000  0.14199787  0.75000000  1
  O  O3  8  0.12120629  0.31180219  0.11026391  1
