# generated using pymatgen
data_Li2S
_symmetry_space_group_name_H-M   Pnma
_cell_length_a   6.28894969
_cell_length_b   3.80964101
_cell_length_c   7.24725209
_cell_angle_alpha   90.00000000
_cell_angle_beta   90.00000000
_cell_angle_gamma   90.00000000
_symmetry_Int_Tables_number   62
_chemical_formula_structural   Li2S
_chemical_formula_sum   'Li8 S4'
_cell_volume   173.63430852
_cell_formula_units_Z   4
loop_
 _symmetry_equiv_pos_site_id
 _symmetry_equiv_pos_as_xyz
  1  'x, y, z'
  2  '-x, -y, -z'
  3  '-x+1/2, -y, z+1/2'
  4  'x+1/2, y, -z+1/2'
  5  'x+1/2, -y+1/2, -z+1/2'
  6  '-x+1/2, y+1/2, z+1/2'
  7  '-x, y+1/2, -z'
  8  'x, -y+1/2, z'
loop_
 _atom_site_type_symbol
 _atom_site_label
 _atom_site_symmetry_multiplicity
 _atom_site_fract_x
 _atom_site_fract_y
 _atom_site_fract_z
 _atom_site_occupancy
  Li  Li0  4  0.01565348  0.75000000  0.16291299  1
  Li  Li1  4  0.14101059  0.75000000  0.57296627  1
  S  S2  4  0.24569893  0.25000000  0.39141515  1
