# generated using pymatgen
data_Li2TiF4
_symmetry_space_group_name_H-M   P2/c
_cell_length_a   5.38473286
_cell_length_b   2.98243860
_cell_length_c   10.86009330
_cell_angle_alpha   90.00000000
_cell_angle_beta   113.53824001
_cell_angle_gamma   90.00000000
_symmetry_Int_Tables_number   13
_chemical_formula_structural   Li2TiF4
_chemical_formula_sum   'Li4 Ti2 F8'
_cell_volume   159.89720384
_cell_formula_units_Z   2
loop_
 _symmetry_equiv_pos_site_id
 _symmetry_equiv_pos_as_xyz
  1  'x, y, z'
  2  '-x, -y, -z'
  3  '-x, y, -z+1/2'
  4  'x, -y, z+1/2'
loop_
 _atom_site_type_symbol
 _atom_site_label
 _atom_site_symmetry_multiplicity
 _atom_site_fract_x
 _atom_site_fract_y
 _atom_site_fract_z
 _atom_site_occupancy
  Li  Li0  4  0.34210215  0.05013413  0.57483395  1
  Ti  Ti1  2  0.00000000  0.45589261  0.25000000  1
  F  F2  4  0.22914421  0.44883677  0.13277021  1
  F  F3  4  0.26925821  0.04259378  0.88400620  1
