# generated using pymatgen
data_Li2ZnF4
_symmetry_space_group_name_H-M   P2/c
_cell_length_a   5.16898702
_cell_length_b   3.13659847
_cell_length_c   10.38987089
_cell_angle_alpha   90.00000000
_cell_angle_beta   113.01931049
_cell_angle_gamma   90.00000000
_symmetry_Int_Tables_number   13
_chemical_formula_structural   Li2ZnF4
_chemical_formula_sum   'Li4 Zn2 F8'
_cell_volume   155.03810134
_cell_formula_units_Z   2
loop_
 _symmetry_equiv_pos_site_id
 _symmetry_equiv_pos_as_xyz
  1  'x, y, z'
  2  '-x, -y, -z'
  3  '-x, y, -z+1/2'
  4  'x, -y, z+1/2'
loop_
 _atom_site_type_symbol
 _atom_site_label
 _atom_site_symmetry_multiplicity
 _atom_site_fract_x
 _atom_site_fract_y
 _atom_site_fract_z
 _atom_site_occupancy
  Li  Li0  4  0.16051339  0.04060882  0.42241033  1
  Zn  Zn1  2  0.50000000  0.46649997  0.75000000  1
  F  F2  4  0.24395825  0.03315013  0.12275907  1
  F  F3  4  0.27289836  0.45866849  0.86534498  1
