# generated using pymatgen
data_Li3PO4
_symmetry_space_group_name_H-M   Pmn2_1
_cell_length_a   6.16175816
_cell_length_b   5.26247693
_cell_length_c   4.89644801
_cell_angle_alpha   90.00000000
_cell_angle_beta   90.00000000
_cell_angle_gamma   90.00000000
_symmetry_Int_Tables_number   31
_chemical_formula_structural   Li3PO4
_chemical_formula_sum   'Li6 P2 O8'
_cell_volume   158.77276259
_cell_formula_units_Z   2
loop_
 _symmetry_equiv_pos_site_id
 _symmetry_equiv_pos_as_xyz
  1  'x, y, z'
  2  '-x+1/2, -y, z+1/2'
  3  '-x, y, z'
  4  'x+1/2, -y, z+1/2'
loop_
 _atom_site_type_symbol
 _atom_site_label
 _atom_site_symmetry_multiplicity
 _atom_site_fract_x
 _atom_site_fract_y
 _atom_site_fract_z
 _atom_site_occupancy
  Li  Li0  4  0.24794176  0.32650506  0.50463563  1
  Li  Li1  2  0.00000000  0.15659334  0.00491871  1
  P  P2  2  0.00000000  0.82562572  0.49686793  1
  O  O3  4  0.20756021  0.68686867  0.60269973  1
  O  O4  2  0.00000000  0.10677412  0.59783763  1
  O  O5  2  0.00000000  0.81956194  0.17890599  1
