# generated using pymatgen
data_Li4Al2O5
_symmetry_space_group_name_H-M   P2_1/c
_cell_length_a   7.44057965
_cell_length_b   5.30814501
_cell_length_c   11.92685915
_cell_angle_alpha   90.00000000
_cell_angle_beta   114.96198108
_cell_angle_gamma   90.00000000
_symmetry_Int_Tables_number   14
_chemical_formula_structural   Li4Al2O5
_chemical_formula_sum   'Li16 Al8 O20'
_cell_volume   427.05677319
_cell_formula_units_Z   4
loop_
 _symmetry_equiv_pos_site_id
 _symmetry_equiv_pos_as_xyz
  1  'x, y, z'
  2  '-x, -y, -z'
  3  '-x, y+1/2, -z+1/2'
  4  'x, -y+1/2, z+1/2'
loop_
 _atom_site_type_symbol
 _atom_site_label
 _atom_site_symmetry_multiplicity
 _atom_site_fract_x
 _atom_site_fract_y
 _atom_site_fract_z
 _atom_site_occupancy
  Li  Li0  4  0.08273751  0.60440540  0.10404371  1
  Li  Li1  4  0.19513307  0.06761621  0.02701858  1
  Li  Li2  4  0.32660746  0.57161247  0.97890107  1
  Li  Li3  4  0.35670945  0.06835027  0.88778326  1
  Al  Al4  4  0.05894283  0.11990151  0.19733123  1
  Al  Al5  4  0.49842409  0.70963399  0.79302382  1
  O  O6  4  0.06410383  0.18205091  0.81989035  1
  O  O7  4  0.07139730  0.74051196  0.94966886  1
  O  O8  4  0.30181883  0.03951279  0.21567792  1
  O  O9  4  0.33749845  0.52908372  0.21898944  1
  O  O10  4  0.45671067  0.24880291  0.04720768  1
