# generated using pymatgen
data_Li4Ga2O5
_symmetry_space_group_name_H-M   P2_1/c
_cell_length_a   7.62807717
_cell_length_b   5.48847319
_cell_length_c   12.15990689
_cell_angle_alpha   90.00000000
_cell_angle_beta   115.26300530
_cell_angle_gamma   90.00000000
_symmetry_Int_Tables_number   14
_chemical_formula_structural   Li4Ga2O5
_chemical_formula_sum   'Li16 Ga8 O20'
_cell_volume   460.40221281
_cell_formula_units_Z   4
loop_
 _symmetry_equiv_pos_site_id
 _symmetry_equiv_pos_as_xyz
  1  'x, y, z'
  2  '-x, -y, -z'
  3  '-x, y+1/2, -z+1/2'
  4  'x, -y+1/2, z+1/2'
loop_
 _atom_site_type_symbol
 _atom_site_label
 _atom_site_symmetry_multiplicity
 _atom_site_fract_x
 _atom_site_fract_y
 _atom_site_fract_z
 _atom_site_occupancy
  Li  Li0  4  0.08122938  0.60879187  0.10244030  1
  Li  Li1  4  0.20442286  0.05105229  0.02497608  1
  Li  Li2  4  0.32778725  0.56278921  0.97673134  1
  Li  Li3  4  0.35829022  0.06571726  0.88804230  1
  Ga  Ga4  4  0.05592582  0.12906172  0.19688445  1
  Ga  Ga5  4  0.49736883  0.71054854  0.79535497  1
  O  O6  4  0.07470562  0.18298716  0.83105597  1
  O  O7  4  0.08595507  0.72604330  0.95251100  1
  O  O8  4  0.29585085  0.03427548  0.20405855  1
  O  O9  4  0.33182390  0.52165995  0.22129805  1
  O  O10  4  0.46235970  0.24959903  0.04149600  1
