# generated using pymatgen
data_LiAlGeH2O5
_symmetry_space_group_name_H-M   Pna2_1
_cell_length_a   12.58667511
_cell_length_b   7.38845616
_cell_length_c   5.54202007
_cell_angle_alpha   90.00000000
_cell_angle_beta   90.00000000
_cell_angle_gamma   90.00000000
_symmetry_Int_Tables_number   33
_chemical_formula_structural   LiAlGeH2O5
_chemical_formula_sum   'Li4 Al4 Ge4 H8 O20'
_cell_volume   515.38623739
_cell_formula_units_Z   4
loop_
 _symmetry_equiv_pos_site_id
 _symmetry_equiv_pos_as_xyz
  1  'x, y, z'
  2  '-x, -y, z+1/2'
  3  '-x+1/2, y+1/2, z+1/2'
  4  'x+1/2, -y+1/2, z'
loop_
 _atom_site_type_symbol
 _atom_site_label
 _atom_site_symmetry_multiplicity
 _atom_site_fract_x
 _atom_site_fract_y
 _atom_site_fract_z
 _atom_site_occupancy
  Li  Li0  4  0.08578297  0.01042583  0.84671004  1
  Al  Al1  4  0.18779683  0.62245259  0.59057931  1
  Ge  Ge2  4  0.19024216  0.40431569  0.09053486  1
  H  H3  4  0.03006685  0.73515826  0.12209995  1
  H  H4  4  0.09017875  0.87442806  0.28568778  1
  O  O5  4  0.03452252  0.86475545  0.15910681  1
  O  O6  4  0.13786590  0.49063251  0.35754983  1
  O  O7  4  0.14034073  0.53902269  0.86206840  1
  O  O8  4  0.16507787  0.86829258  0.59067173  1
  O  O9  4  0.17096368  0.16465057  0.05429034  1
