# generated using pymatgen
data_LiAlSnO4
_symmetry_space_group_name_H-M   Imma
_cell_length_a   5.82529922
_cell_length_b   6.27020779
_cell_length_c   8.49026264
_cell_angle_alpha   90.00000000
_cell_angle_beta   90.00000000
_cell_angle_gamma   90.00000000
_symmetry_Int_Tables_number   74
_chemical_formula_structural   LiAlSnO4
_chemical_formula_sum   'Li4 Al4 Sn4 O16'
_cell_volume   310.11394542
_cell_formula_units_Z   4
loop_
 _symmetry_equiv_pos_site_id
 _symmetry_equiv_pos_as_xyz
  1  'x, y, z'
  2  '-x, -y, -z'
  3  '-x, -y+1/2, z'
  4  'x, y+1/2, -z'
  5  'x, -y, -z'
  6  '-x, y, z'
  7  '-x, y+1/2, -z'
  8  'x, -y+1/2, z'
  9  'x+1/2, y+1/2, z+1/2'
  10  '-x+1/2, -y+1/2, -z+1/2'
  11  '-x+1/2, -y, z+1/2'
  12  'x+1/2, y, -z+1/2'
  13  'x+1/2, -y+1/2, -z+1/2'
  14  '-x+1/2, y+1/2, z+1/2'
  15  '-x+1/2, y, -z+1/2'
  16  'x+1/2, -y, z+1/2'
loop_
 _atom_site_type_symbol
 _atom_site_label
 _atom_site_symmetry_multiplicity
 _atom_site_fract_x
 _atom_site_fract_y
 _atom_site_fract_z
 _atom_site_occupancy
  Li  Li0  4  0.00000000  0.25000000  0.87287934  1
  Al  Al1  4  0.25000000  0.25000000  0.25000000  1
  Sn  Sn2  4  0.00000000  0.00000000  0.50000000  1
  O  O3  8  0.00000000  0.04081150  0.25679090  1
  O  O4  8  0.23963614  0.25000000  0.48261485  1
