# generated using pymatgen
data_LiCaBO3
_symmetry_space_group_name_H-M   P2_1/c
_cell_length_a   6.42156337
_cell_length_b   6.43512653
_cell_length_c   7.76036542
_cell_angle_alpha   90.00000000
_cell_angle_beta   125.20861657
_cell_angle_gamma   90.00000000
_symmetry_Int_Tables_number   14
_chemical_formula_structural   LiCaBO3
_chemical_formula_sum   'Li4 Ca4 B4 O12'
_cell_volume   262.01914668
_cell_formula_units_Z   4
loop_
 _symmetry_equiv_pos_site_id
 _symmetry_equiv_pos_as_xyz
  1  'x, y, z'
  2  '-x, -y, -z'
  3  '-x, y+1/2, -z+1/2'
  4  'x, -y+1/2, z+1/2'
loop_
 _atom_site_type_symbol
 _atom_site_label
 _atom_site_symmetry_multiplicity
 _atom_site_fract_x
 _atom_site_fract_y
 _atom_site_fract_z
 _atom_site_occupancy
  Li  Li0  4  0.40504377  0.59847375  0.30735915  1
  Ca  Ca1  4  0.16209086  0.11437660  0.37829721  1
  B  B2  4  0.24923914  0.62210397  0.57132473  1
  O  O3  4  0.09701571  0.70255475  0.00023677  1
  O  O4  4  0.23462249  0.01855135  0.92866484  1
  O  O5  4  0.42497405  0.58862019  0.78768786  1
