# generated using pymatgen
data_LiCdF3
_symmetry_space_group_name_H-M   C2/m
_cell_length_a   10.35926570
_cell_length_b   9.11513604
_cell_length_c   5.83347065
_cell_angle_alpha   90.00000000
_cell_angle_beta   92.64106598
_cell_angle_gamma   90.00000000
_symmetry_Int_Tables_number   12
_chemical_formula_structural   LiCdF3
_chemical_formula_sum   'Li8 Cd8 F24'
_cell_volume   550.24688229
_cell_formula_units_Z   8
loop_
 _symmetry_equiv_pos_site_id
 _symmetry_equiv_pos_as_xyz
  1  'x, y, z'
  2  '-x, -y, -z'
  3  '-x, y, -z'
  4  'x, -y, z'
  5  'x+1/2, y+1/2, z'
  6  '-x+1/2, -y+1/2, -z'
  7  '-x+1/2, y+1/2, -z'
  8  'x+1/2, -y+1/2, z'
loop_
 _atom_site_type_symbol
 _atom_site_label
 _atom_site_symmetry_multiplicity
 _atom_site_fract_x
 _atom_site_fract_y
 _atom_site_fract_z
 _atom_site_occupancy
  Li  Li0  4  0.00000000  0.33747383  0.50000000  1
  Li  Li1  4  0.16932812  0.50000000  0.07768494  1
  Cd  Cd2  4  0.00000000  0.18981705  0.00000000  1
  Cd  Cd3  4  0.23097909  0.00000000  0.35740061  1
  F  F4  8  0.09922182  0.18792832  0.35052218  1
  F  F5  8  0.12793668  0.35445838  0.84451505  1
  F  F6  4  0.11363097  0.50000000  0.37469061  1
  F  F7  4  0.14416215  0.00000000  0.94979530  1
