# generated using pymatgen
data_LiCoF3
_symmetry_space_group_name_H-M   Pnma
_cell_length_a   5.67536322
_cell_length_b   8.01796923
_cell_length_c   5.11006582
_cell_angle_alpha   90.00000000
_cell_angle_beta   90.00000000
_cell_angle_gamma   90.00000000
_symmetry_Int_Tables_number   62
_chemical_formula_structural   LiCoF3
_chemical_formula_sum   'Li4 Co4 F12'
_cell_volume   232.53297111
_cell_formula_units_Z   4
loop_
 _symmetry_equiv_pos_site_id
 _symmetry_equiv_pos_as_xyz
  1  'x, y, z'
  2  '-x, -y, -z'
  3  '-x+1/2, -y, z+1/2'
  4  'x+1/2, y, -z+1/2'
  5  'x+1/2, -y+1/2, -z+1/2'
  6  '-x+1/2, y+1/2, z+1/2'
  7  '-x, y+1/2, -z'
  8  'x, -y+1/2, z'
loop_
 _atom_site_type_symbol
 _atom_site_label
 _atom_site_symmetry_multiplicity
 _atom_site_fract_x
 _atom_site_fract_y
 _atom_site_fract_z
 _atom_site_occupancy
  Li  Li0  4  0.13799640  0.75000000  0.53084600  1
  Co  Co1  4  0.00000000  0.00000000  0.00000000  1
  F  F2  8  0.19528863  0.56683544  0.31452956  1
  F  F3  4  0.02208059  0.25000000  0.14685776  1
