# generated using pymatgen
data_LiFeF3
_symmetry_space_group_name_H-M   Pnma
_cell_length_a   5.84633588
_cell_length_b   8.26939667
_cell_length_c   5.04258665
_cell_angle_alpha   90.00000000
_cell_angle_beta   90.00000000
_cell_angle_gamma   90.00000000
_symmetry_Int_Tables_number   62
_chemical_formula_structural   LiFeF3
_chemical_formula_sum   'Li4 Fe4 F12'
_cell_volume   243.78723244
_cell_formula_units_Z   4
loop_
 _symmetry_equiv_pos_site_id
 _symmetry_equiv_pos_as_xyz
  1  'x, y, z'
  2  '-x, -y, -z'
  3  '-x+1/2, -y, z+1/2'
  4  'x+1/2, y, -z+1/2'
  5  'x+1/2, -y+1/2, -z+1/2'
  6  '-x+1/2, y+1/2, z+1/2'
  7  '-x, y+1/2, -z'
  8  'x, -y+1/2, z'
loop_
 _atom_site_type_symbol
 _atom_site_label
 _atom_site_symmetry_multiplicity
 _atom_site_fract_x
 _atom_site_fract_y
 _atom_site_fract_z
 _atom_site_occupancy
  Li  Li0  4  0.14687340  0.25000000  0.46657969  1
  Fe  Fe1  4  0.00000000  0.00000000  0.00000000  1
  F  F2  8  0.18981414  0.07118708  0.68706229  1
  F  F3  4  0.02735666  0.75000000  0.84626939  1
