# generated using pymatgen
data_LiH2SeCl
_symmetry_space_group_name_H-M   Cmcm
_cell_length_a   8.09979783
_cell_length_b   10.19206090
_cell_length_c   7.98081508
_cell_angle_alpha   90.00000000
_cell_angle_beta   90.00000000
_cell_angle_gamma   90.00000000
_symmetry_Int_Tables_number   63
_chemical_formula_structural   LiH2SeCl
_chemical_formula_sum   'Li8 H16 Se8 Cl8'
_cell_volume   658.84527769
_cell_formula_units_Z   8
loop_
 _symmetry_equiv_pos_site_id
 _symmetry_equiv_pos_as_xyz
  1  'x, y, z'
  2  '-x, -y, -z'
  3  '-x, -y, z+1/2'
  4  'x, y, -z+1/2'
  5  'x, -y, -z'
  6  '-x, y, z'
  7  '-x, y, -z+1/2'
  8  'x, -y, z+1/2'
  9  'x+1/2, y+1/2, z'
  10  '-x+1/2, -y+1/2, -z'
  11  '-x+1/2, -y+1/2, z+1/2'
  12  'x+1/2, y+1/2, -z+1/2'
  13  'x+1/2, -y+1/2, -z'
  14  '-x+1/2, y+1/2, z'
  15  '-x+1/2, y+1/2, -z+1/2'
  16  'x+1/2, -y+1/2, z+1/2'
loop_
 _atom_site_type_symbol
 _atom_site_label
 _atom_site_symmetry_multiplicity
 _atom_site_fract_x
 _atom_site_fract_y
 _atom_site_fract_z
 _atom_site_occupancy
  Li  Li0  4  0.00000000  0.00000000  0.00000000  1
  Li  Li1  4  0.00000000  0.46025614  0.75000000  1
  H  H2  16  0.12856322  0.21354389  0.59760119  1
  Se  Se3  8  0.00000000  0.28384285  0.00330703  1
  Cl  Cl4  8  0.21648842  0.02192149  0.75000000  1
