# generated using pymatgen
data_LiMgF3
_symmetry_space_group_name_H-M   C2/m
_cell_length_a   9.31552515
_cell_length_b   8.52982069
_cell_length_c   5.81405175
_cell_angle_alpha   90.00000000
_cell_angle_beta   93.23884524
_cell_angle_gamma   90.00000000
_symmetry_Int_Tables_number   12
_chemical_formula_structural   LiMgF3
_chemical_formula_sum   'Li8 Mg8 F24'
_cell_volume   461.24522096
_cell_formula_units_Z   8
loop_
 _symmetry_equiv_pos_site_id
 _symmetry_equiv_pos_as_xyz
  1  'x, y, z'
  2  '-x, -y, -z'
  3  '-x, y, -z'
  4  'x, -y, z'
  5  'x+1/2, y+1/2, z'
  6  '-x+1/2, -y+1/2, -z'
  7  '-x+1/2, y+1/2, -z'
  8  'x+1/2, -y+1/2, z'
loop_
 _atom_site_type_symbol
 _atom_site_label
 _atom_site_symmetry_multiplicity
 _atom_site_fract_x
 _atom_site_fract_y
 _atom_site_fract_z
 _atom_site_occupancy
  Li  Li0  4  0.00000000  0.31605301  0.50000000  1
  Li  Li1  4  0.16406609  0.50000000  0.13115622  1
  Mg  Mg2  4  0.00000000  0.18557733  0.00000000  1
  Mg  Mg3  4  0.23989355  0.00000000  0.28300002  1
  F  F4  8  0.10090508  0.17307017  0.31262164  1
  F  F5  8  0.12269728  0.34932261  0.87247520  1
  F  F6  4  0.13660999  0.00000000  0.94551091  1
  F  F7  4  0.13692985  0.50000000  0.43736614  1
