# generated using pymatgen
data_LiMg2F5
_symmetry_space_group_name_H-M   Pnnm
_cell_length_a   8.27753745
_cell_length_b   8.45498098
_cell_length_c   6.12090017
_cell_angle_alpha   90.00000000
_cell_angle_beta   90.00000000
_cell_angle_gamma   90.00000000
_symmetry_Int_Tables_number   58
_chemical_formula_structural   LiMg2F5
_chemical_formula_sum   'Li4 Mg8 F20'
_cell_volume   428.37990049
_cell_formula_units_Z   4
loop_
 _symmetry_equiv_pos_site_id
 _symmetry_equiv_pos_as_xyz
  1  'x, y, z'
  2  '-x, -y, -z'
  3  '-x, -y, z'
  4  'x, y, -z'
  5  'x+1/2, -y+1/2, -z+1/2'
  6  '-x+1/2, y+1/2, z+1/2'
  7  '-x+1/2, y+1/2, -z+1/2'
  8  'x+1/2, -y+1/2, z+1/2'
loop_
 _atom_site_type_symbol
 _atom_site_label
 _atom_site_symmetry_multiplicity
 _atom_site_fract_x
 _atom_site_fract_y
 _atom_site_fract_z
 _atom_site_occupancy
  Li  Li0  4  0.24621691  0.23705617  0.00000000  1
  Mg  Mg1  4  0.00000000  0.00000000  0.25323375  1
  Mg  Mg2  4  0.13780305  0.62751794  0.00000000  1
  F  F3  8  0.21579457  0.11754788  0.25304412  1
  F  F4  4  0.07072567  0.86149610  0.50000000  1
  F  F5  4  0.08207325  0.86260958  0.00000000  1
  F  F6  4  0.09765609  0.39479238  0.00000000  1
