# generated using pymatgen
data_LiMn2OF3
_symmetry_space_group_name_H-M   C2/m
_cell_length_a   10.59026986
_cell_length_b   6.36582445
_cell_length_c   6.38699799
_cell_angle_alpha   90.00000000
_cell_angle_beta   124.87079850
_cell_angle_gamma   90.00000000
_symmetry_Int_Tables_number   12
_chemical_formula_structural   LiMn2OF3
_chemical_formula_sum   'Li4 Mn8 O4 F12'
_cell_volume   353.27025709
_cell_formula_units_Z   4
loop_
 _symmetry_equiv_pos_site_id
 _symmetry_equiv_pos_as_xyz
  1  'x, y, z'
  2  '-x, -y, -z'
  3  '-x, y, -z'
  4  'x, -y, z'
  5  'x+1/2, y+1/2, z'
  6  '-x+1/2, -y+1/2, -z'
  7  '-x+1/2, y+1/2, -z'
  8  'x+1/2, -y+1/2, z'
loop_
 _atom_site_type_symbol
 _atom_site_label
 _atom_site_symmetry_multiplicity
 _atom_site_fract_x
 _atom_site_fract_y
 _atom_site_fract_z
 _atom_site_occupancy
  Li  Li0  2  0.00000000  0.50000000  0.00000000  1
  Li  Li1  2  0.00000000  0.50000000  0.50000000  1
  Mn  Mn2  4  0.14637396  0.00000000  0.44205399  1
  Mn  Mn3  4  0.25000000  0.25000000  0.00000000  1
  O  O4  4  0.23094526  0.50000000  0.18097954  1
  F  F5  8  0.00840840  0.26558902  0.27160036  1
  F  F6  4  0.23390837  0.50000000  0.72945298  1
