# generated using pymatgen
data_LiMnF3
_symmetry_space_group_name_H-M   C2/m
_cell_length_a   9.88148907
_cell_length_b   8.88292538
_cell_length_c   5.85712330
_cell_angle_alpha   90.00000000
_cell_angle_beta   92.39279856
_cell_angle_gamma   90.00000000
_symmetry_Int_Tables_number   12
_chemical_formula_structural   LiMnF3
_chemical_formula_sum   'Li8 Mn8 F24'
_cell_volume   513.66969253
_cell_formula_units_Z   8
loop_
 _symmetry_equiv_pos_site_id
 _symmetry_equiv_pos_as_xyz
  1  'x, y, z'
  2  '-x, -y, -z'
  3  '-x, y, -z'
  4  'x, -y, z'
  5  'x+1/2, y+1/2, z'
  6  '-x+1/2, -y+1/2, -z'
  7  '-x+1/2, y+1/2, -z'
  8  'x+1/2, -y+1/2, z'
loop_
 _atom_site_type_symbol
 _atom_site_label
 _atom_site_symmetry_multiplicity
 _atom_site_fract_x
 _atom_site_fract_y
 _atom_site_fract_z
 _atom_site_occupancy
  Li  Li0  4  0.00000000  0.32929734  0.50000000  1
  Li  Li1  4  0.16866428  0.50000000  0.10471336  1
  Mn  Mn2  4  0.00000000  0.18873874  0.00000000  1
  Mn  Mn3  4  0.23290024  0.00000000  0.31922286  1
  F  F4  8  0.09757456  0.18059049  0.33132734  1
  F  F5  8  0.12687229  0.35252115  0.86219410  1
  F  F6  4  0.12629651  0.50000000  0.40756849  1
  F  F7  4  0.13978077  0.00000000  0.95043137  1
