# generated using pymatgen
data_LiScSnO4
_symmetry_space_group_name_H-M   Imma
_cell_length_a   6.27256638
_cell_length_b   6.30847485
_cell_length_c   8.89879460
_cell_angle_alpha   90.00000000
_cell_angle_beta   90.00000000
_cell_angle_gamma   90.00000000
_symmetry_Int_Tables_number   74
_chemical_formula_structural   LiScSnO4
_chemical_formula_sum   'Li4 Sc4 Sn4 O16'
_cell_volume   352.12821416
_cell_formula_units_Z   4
loop_
 _symmetry_equiv_pos_site_id
 _symmetry_equiv_pos_as_xyz
  1  'x, y, z'
  2  '-x, -y, -z'
  3  '-x, -y+1/2, z'
  4  'x, y+1/2, -z'
  5  'x, -y, -z'
  6  '-x, y, z'
  7  '-x, y+1/2, -z'
  8  'x, -y+1/2, z'
  9  'x+1/2, y+1/2, z+1/2'
  10  '-x+1/2, -y+1/2, -z+1/2'
  11  '-x+1/2, -y, z+1/2'
  12  'x+1/2, y, -z+1/2'
  13  'x+1/2, -y+1/2, -z+1/2'
  14  '-x+1/2, y+1/2, z+1/2'
  15  '-x+1/2, y, -z+1/2'
  16  'x+1/2, -y, z+1/2'
loop_
 _atom_site_type_symbol
 _atom_site_label
 _atom_site_symmetry_multiplicity
 _atom_site_fract_x
 _atom_site_fract_y
 _atom_site_fract_z
 _atom_site_occupancy
  Li  Li0  4  0.00000000  0.25000000  0.13717416  1
  Sc  Sc1  4  0.25000000  0.25000000  0.75000000  1
  Sn  Sn2  4  0.00000000  0.00000000  0.50000000  1
  O  O3  8  0.00000000  0.02393675  0.73478469  1
  O  O4  8  0.22659152  0.25000000  0.50688479  1
