# generated using pymatgen
data_LiSiBH2O5
_symmetry_space_group_name_H-M   Pna2_1
_cell_length_a   12.61678546
_cell_length_b   6.56116810
_cell_length_c   4.97597615
_cell_angle_alpha   90.00000000
_cell_angle_beta   90.00000000
_cell_angle_gamma   90.00000000
_symmetry_Int_Tables_number   33
_chemical_formula_structural   LiSiBH2O5
_chemical_formula_sum   'Li4 Si4 B4 H8 O20'
_cell_volume   411.91553669
_cell_formula_units_Z   4
loop_
 _symmetry_equiv_pos_site_id
 _symmetry_equiv_pos_as_xyz
  1  'x, y, z'
  2  '-x, -y, z+1/2'
  3  '-x+1/2, y+1/2, z+1/2'
  4  'x+1/2, -y+1/2, z'
loop_
 _atom_site_type_symbol
 _atom_site_label
 _atom_site_symmetry_multiplicity
 _atom_site_fract_x
 _atom_site_fract_y
 _atom_site_fract_z
 _atom_site_occupancy
  Li  Li0  4  0.08126496  0.56615411  0.86625710  1
  Si  Si1  4  0.20674757  0.15550748  0.06427231  1
  B  B2  4  0.19722563  0.94239624  0.56306396  1
  H  H3  4  0.04066035  0.22196174  0.69839939  1
  H  H4  4  0.06553697  0.68598682  0.32192256  1
  O  O5  4  0.00630885  0.65760040  0.19453359  1
  O  O6  4  0.15870590  0.05751702  0.79002346  1
  O  O7  4  0.15954077  0.02870190  0.31428048  1
  O  O8  4  0.16342250  0.71128357  0.58004478  1
  O  O9  4  0.18429279  0.40547974  0.06649427  1
