# generated using pymatgen
data_LiSn2Cl5
_symmetry_space_group_name_H-M   Pnnm
_cell_length_a   8.77499608
_cell_length_b   11.61437894
_cell_length_c   8.42001145
_cell_angle_alpha   90.00000000
_cell_angle_beta   90.00000000
_cell_angle_gamma   90.00000000
_symmetry_Int_Tables_number   58
_chemical_formula_structural   LiSn2Cl5
_chemical_formula_sum   'Li4 Sn8 Cl20'
_cell_volume   858.13497876
_cell_formula_units_Z   4
loop_
 _symmetry_equiv_pos_site_id
 _symmetry_equiv_pos_as_xyz
  1  'x, y, z'
  2  '-x, -y, -z'
  3  '-x, -y, z'
  4  'x, y, -z'
  5  'x+1/2, -y+1/2, -z+1/2'
  6  '-x+1/2, y+1/2, z+1/2'
  7  '-x+1/2, y+1/2, -z+1/2'
  8  'x+1/2, -y+1/2, z+1/2'
loop_
 _atom_site_type_symbol
 _atom_site_label
 _atom_site_symmetry_multiplicity
 _atom_site_fract_x
 _atom_site_fract_y
 _atom_site_fract_z
 _atom_site_occupancy
  Li  Li0  4  0.00000000  0.50000000  0.24782028  1
  Sn  Sn1  4  0.06360700  0.17420170  0.00000000  1
  Sn  Sn2  4  0.06631829  0.18106368  0.50000000  1
  Cl  Cl3  8  0.16432720  0.31701937  0.26594016  1
  Cl  Cl4  4  0.00000000  0.00000000  0.22451513  1
  Cl  Cl5  4  0.15767736  0.59694429  0.50000000  1
  Cl  Cl6  4  0.16155906  0.58462492  0.00000000  1
