# generated using pymatgen
data_LiTiO2
_symmetry_space_group_name_H-M   Pnnm
_cell_length_a   5.01637110
_cell_length_b   5.07189746
_cell_length_c   2.81946675
_cell_angle_alpha   90.00000000
_cell_angle_beta   90.00000000
_cell_angle_gamma   90.00000000
_symmetry_Int_Tables_number   58
_chemical_formula_structural   LiTiO2
_chemical_formula_sum   'Li2 Ti2 O4'
_cell_volume   71.73433880
_cell_formula_units_Z   2
loop_
 _symmetry_equiv_pos_site_id
 _symmetry_equiv_pos_as_xyz
  1  'x, y, z'
  2  '-x, -y, -z'
  3  '-x, -y, z'
  4  'x, y, -z'
  5  'x+1/2, -y+1/2, -z+1/2'
  6  '-x+1/2, y+1/2, z+1/2'
  7  '-x+1/2, y+1/2, -z+1/2'
  8  'x+1/2, -y+1/2, z+1/2'
loop_
 _atom_site_type_symbol
 _atom_site_label
 _atom_site_symmetry_multiplicity
 _atom_site_fract_x
 _atom_site_fract_y
 _atom_site_fract_z
 _atom_site_occupancy
  Li  Li0  2  0.00000000  0.00000000  0.00000000  1
  Ti  Ti1  2  0.00000000  0.50000000  0.00000000  1
  O  O2  4  0.18312529  0.74200070  0.50000000  1
