# generated using pymatgen
data_LiYO2
_symmetry_space_group_name_H-M   P2_1/c
_cell_length_a   6.23283749
_cell_length_b   5.57087398
_cell_length_c   6.17475793
_cell_angle_alpha   90.00000000
_cell_angle_beta   113.33184347
_cell_angle_gamma   90.00000000
_symmetry_Int_Tables_number   14
_chemical_formula_structural   LiYO2
_chemical_formula_sum   'Li4 Y4 O8'
_cell_volume   196.86968761
_cell_formula_units_Z   4
loop_
 _symmetry_equiv_pos_site_id
 _symmetry_equiv_pos_as_xyz
  1  'x, y, z'
  2  '-x, -y, -z'
  3  '-x, y+1/2, -z+1/2'
  4  'x, -y+1/2, z+1/2'
loop_
 _atom_site_type_symbol
 _atom_site_label
 _atom_site_symmetry_multiplicity
 _atom_site_fract_x
 _atom_site_fract_y
 _atom_site_fract_z
 _atom_site_occupancy
  Li  Li0  4  0.17070441  0.06961780  0.71691622  1
  Y  Y1  4  0.27302473  0.53541936  0.73521592  1
  O  O2  4  0.08587868  0.68991803  0.37020895  1
  O  O3  4  0.37532554  0.19767985  0.57572514  1
