# generated using pymatgen
data_LiZnF3
_symmetry_space_group_name_H-M   C2/m
_cell_length_a   9.56495144
_cell_length_b   8.69219398
_cell_length_c   5.78986715
_cell_angle_alpha   90.00000000
_cell_angle_beta   93.81447842
_cell_angle_gamma   90.00000000
_symmetry_Int_Tables_number   12
_chemical_formula_structural   LiZnF3
_chemical_formula_sum   'Li8 Zn8 F24'
_cell_volume   480.30555988
_cell_formula_units_Z   8
loop_
 _symmetry_equiv_pos_site_id
 _symmetry_equiv_pos_as_xyz
  1  'x, y, z'
  2  '-x, -y, -z'
  3  '-x, y, -z'
  4  'x, -y, z'
  5  'x+1/2, y+1/2, z'
  6  '-x+1/2, -y+1/2, -z'
  7  '-x+1/2, y+1/2, -z'
  8  'x+1/2, -y+1/2, z'
loop_
 _atom_site_type_symbol
 _atom_site_label
 _atom_site_symmetry_multiplicity
 _atom_site_fract_x
 _atom_site_fract_y
 _atom_site_fract_z
 _atom_site_occupancy
  Li  Li0  4  0.00000000  0.32194191  0.50000000  1
  Li  Li1  4  0.16463316  0.50000000  0.11610099  1
  Zn  Zn2  4  0.00000000  0.18480283  0.00000000  1
  Zn  Zn3  4  0.23703237  0.00000000  0.30017889  1
  F  F4  8  0.10190421  0.17485173  0.32201122  1
  F  F5  8  0.12117132  0.35014707  0.86566471  1
  F  F6  4  0.13081447  0.50000000  0.42411386  1
  F  F7  4  0.13830886  0.00000000  0.94073390  1
