# generated using pymatgen
data_Mg2SiO4
_symmetry_space_group_name_H-M   Pnma
_cell_length_a   10.46093781
_cell_length_b   6.81860715
_cell_length_c   5.12099268
_cell_angle_alpha   90.00000000
_cell_angle_beta   90.00000000
_cell_angle_gamma   90.00000000
_symmetry_Int_Tables_number   62
_chemical_formula_structural   Mg2SiO4
_chemical_formula_sum   'Mg8 Si4 O16'
_cell_volume   365.27541667
_cell_formula_units_Z   4
loop_
 _symmetry_equiv_pos_site_id
 _symmetry_equiv_pos_as_xyz
  1  'x, y, z'
  2  '-x, -y, -z'
  3  '-x+1/2, -y, z+1/2'
  4  'x+1/2, y, -z+1/2'
  5  'x+1/2, -y+1/2, -z+1/2'
  6  '-x+1/2, y+1/2, z+1/2'
  7  '-x, y+1/2, -z'
  8  'x, -y+1/2, z'
loop_
 _atom_site_type_symbol
 _atom_site_label
 _atom_site_symmetry_multiplicity
 _atom_site_fract_x
 _atom_site_fract_y
 _atom_site_fract_z
 _atom_site_occupancy
  Mg  Mg0  8  0.15550665  0.00133612  0.68498677  1
  Si  Si1  4  0.09444170  0.75000000  0.18377155  1
  O  O2  8  0.16594425  0.55452595  0.30500600  1
  O  O3  4  0.05779364  0.25000000  0.73682053  1
  O  O4  4  0.11537890  0.75000000  0.86478410  1
