# generated using pymatgen
data_MnNbO4
_symmetry_space_group_name_H-M   P2/c
_cell_length_a   4.73486385
_cell_length_b   5.78034546
_cell_length_c   5.03710354
_cell_angle_alpha   90.00000000
_cell_angle_beta   91.57502271
_cell_angle_gamma   90.00000000
_symmetry_Int_Tables_number   13
_chemical_formula_structural   MnNbO4
_chemical_formula_sum   'Mn2 Nb2 O8'
_cell_volume   137.80915101
_cell_formula_units_Z   2
loop_
 _symmetry_equiv_pos_site_id
 _symmetry_equiv_pos_as_xyz
  1  'x, y, z'
  2  '-x, -y, -z'
  3  '-x, y, -z+1/2'
  4  'x, -y, z+1/2'
loop_
 _atom_site_type_symbol
 _atom_site_label
 _atom_site_symmetry_multiplicity
 _atom_site_fract_x
 _atom_site_fract_y
 _atom_site_fract_z
 _atom_site_occupancy
  Mn  Mn0  2  0.00000000  0.33929961  0.75000000  1
  Nb  Nb1  2  0.50000000  0.17304358  0.25000000  1
  O  O2  4  0.22679400  0.37599412  0.07019942  1
  O  O3  4  0.27838403  0.11388177  0.57272693  1
