# generated using pymatgen
data_MnO2
_symmetry_space_group_name_H-M   Pc
_cell_length_a   4.63416048
_cell_length_b   4.48897659
_cell_length_c   8.93124693
_cell_angle_alpha   90.00000000
_cell_angle_beta   120.74198062
_cell_angle_gamma   90.00000000
_symmetry_Int_Tables_number   7
_chemical_formula_structural   MnO2
_chemical_formula_sum   'Mn4 O8'
_cell_volume   159.68541575
_cell_formula_units_Z   4
loop_
 _symmetry_equiv_pos_site_id
 _symmetry_equiv_pos_as_xyz
  1  'x, y, z'
  2  'x, -y, z+1/2'
loop_
 _atom_site_type_symbol
 _atom_site_label
 _atom_site_symmetry_multiplicity
 _atom_site_fract_x
 _atom_site_fract_y
 _atom_site_fract_z
 _atom_site_occupancy
  Mn  Mn0  2  0.45179193  0.38826677  0.89462226  1
  Mn  Mn1  2  0.99053090  0.04625641  0.50750694  1
  O  O2  2  0.10655377  0.14666296  0.88171283  1
  O  O3  2  0.30426700  0.27657268  0.64822531  1
  O  O4  2  0.64707123  0.26077203  0.36938953  1
  O  O5  2  0.84280082  0.21350145  0.09373998  1
