# generated using pymatgen
data_MoO2
_symmetry_space_group_name_H-M   P2_1/c
_cell_length_a   5.16696199
_cell_length_b   5.04660728
_cell_length_c   5.27070235
_cell_angle_alpha   90.00000000
_cell_angle_beta   100.33852968
_cell_angle_gamma   90.00000000
_symmetry_Int_Tables_number   14
_chemical_formula_structural   MoO2
_chemical_formula_sum   'Mo4 O8'
_cell_volume   135.20552798
_cell_formula_units_Z   4
loop_
 _symmetry_equiv_pos_site_id
 _symmetry_equiv_pos_as_xyz
  1  'x, y, z'
  2  '-x, -y, -z'
  3  '-x, y+1/2, -z+1/2'
  4  'x, -y+1/2, z+1/2'
loop_
 _atom_site_type_symbol
 _atom_site_label
 _atom_site_symmetry_multiplicity
 _atom_site_fract_x
 _atom_site_fract_y
 _atom_site_fract_z
 _atom_site_occupancy
  Mo  Mo0  4  0.22957851  0.53114746  0.79716003  1
  O  O1  4  0.03769122  0.24800775  0.00645174  1
  O  O2  4  0.45486624  0.71154284  0.11486122  1
