# generated using pymatgen
data_MoPO4
_symmetry_space_group_name_H-M   Pna2_1
_cell_length_a   9.69476417
_cell_length_b   4.44207585
_cell_length_c   8.10599217
_cell_angle_alpha   90.00000000
_cell_angle_beta   90.00000000
_cell_angle_gamma   90.00000000
_symmetry_Int_Tables_number   33
_chemical_formula_structural   MoPO4
_chemical_formula_sum   'Mo4 P4 O16'
_cell_volume   349.08356222
_cell_formula_units_Z   4
loop_
 _symmetry_equiv_pos_site_id
 _symmetry_equiv_pos_as_xyz
  1  'x, y, z'
  2  '-x, -y, z+1/2'
  3  '-x+1/2, y+1/2, z+1/2'
  4  'x+1/2, -y+1/2, z'
loop_
 _atom_site_type_symbol
 _atom_site_label
 _atom_site_symmetry_multiplicity
 _atom_site_fract_x
 _atom_site_fract_y
 _atom_site_fract_z
 _atom_site_occupancy
  Mo  Mo0  4  0.15712973  0.79277947  0.77745456  1
  P  P1  4  0.06582861  0.36665660  0.53721089  1
  O  O2  4  0.07402594  0.71773565  0.55194638  1
  O  O3  4  0.08570794  0.73339361  0.02003834  1
  O  O4  4  0.12997354  0.26698610  0.70936755  1
  O  O5  4  0.14624793  0.26590378  0.38385960  1
