# generated using pymatgen
data_Na2MnP2O7
_symmetry_space_group_name_H-M   C2/c
_cell_length_a   14.97349607
_cell_length_b   5.83305426
_cell_length_c   8.45076376
_cell_angle_alpha   90.00000000
_cell_angle_beta   115.95600089
_cell_angle_gamma   90.00000000
_symmetry_Int_Tables_number   15
_chemical_formula_structural   Na2MnP2O7
_chemical_formula_sum   'Na8 Mn4 P8 O28'
_cell_volume   663.64813982
_cell_formula_units_Z   4
loop_
 _symmetry_equiv_pos_site_id
 _symmetry_equiv_pos_as_xyz
  1  'x, y, z'
  2  '-x, -y, -z'
  3  '-x, y, -z+1/2'
  4  'x, -y, z+1/2'
  5  'x+1/2, y+1/2, z'
  6  '-x+1/2, -y+1/2, -z'
  7  '-x+1/2, y+1/2, -z+1/2'
  8  'x+1/2, -y+1/2, z+1/2'
loop_
 _atom_site_type_symbol
 _atom_site_label
 _atom_site_symmetry_multiplicity
 _atom_site_fract_x
 _atom_site_fract_y
 _atom_site_fract_z
 _atom_site_occupancy
  Na  Na0  8  0.23448546  0.13485024  0.30250626  1
  Mn  Mn1  4  0.00000000  0.00000000  0.00000000  1
  P  P2  8  0.10770785  0.35013626  0.84813918  1
  O  O3  8  0.10729608  0.22763120  0.00935483  1
  O  O4  8  0.11329802  0.17369547  0.71511897  1
  O  O5  8  0.18591246  0.46534725  0.39555778  1
  O  O6  4  0.00000000  0.48060095  0.75000000  1
