# generated using pymatgen
data_Na2PHS4
_symmetry_space_group_name_H-M   P2_1
_cell_length_a   6.52834284
_cell_length_b   8.76260096
_cell_length_c   6.71325305
_cell_angle_alpha   90.00000000
_cell_angle_beta   116.47703131
_cell_angle_gamma   90.00000000
_symmetry_Int_Tables_number   4
_chemical_formula_structural   Na2PHS4
_chemical_formula_sum   'Na4 P2 H2 S8'
_cell_volume   343.75335753
_cell_formula_units_Z   2
loop_
 _symmetry_equiv_pos_site_id
 _symmetry_equiv_pos_as_xyz
  1  'x, y, z'
  2  '-x, y+1/2, -z'
loop_
 _atom_site_type_symbol
 _atom_site_label
 _atom_site_symmetry_multiplicity
 _atom_site_fract_x
 _atom_site_fract_y
 _atom_site_fract_z
 _atom_site_occupancy
  Na  Na0  2  0.07361472  0.74416888  0.25275882  1
  Na  Na1  2  0.44216622  0.52838467  0.92364045  1
  P  P2  2  0.15831263  0.25026467  0.37536086  1
  H  H3  2  0.49236697  0.45976628  0.46586371  1
  S  S4  2  0.17467482  0.79454481  0.71340551  1
  S  S5  2  0.19770086  0.06990169  0.20455329  1
  S  S6  2  0.28950183  0.45023650  0.27568796  1
  S  S7  2  0.35458265  0.24153154  0.71088340  1
