# generated using pymatgen
data_Na3AsO4
_symmetry_space_group_name_H-M   Pmn2_1
_cell_length_a   7.01298075
_cell_length_b   6.03078853
_cell_length_c   5.54446702
_cell_angle_alpha   90.00000000
_cell_angle_beta   90.00000000
_cell_angle_gamma   90.00000000
_symmetry_Int_Tables_number   31
_chemical_formula_structural   Na3AsO4
_chemical_formula_sum   'Na6 As2 O8'
_cell_volume   234.49660070
_cell_formula_units_Z   2
loop_
 _symmetry_equiv_pos_site_id
 _symmetry_equiv_pos_as_xyz
  1  'x, y, z'
  2  '-x+1/2, -y, z+1/2'
  3  '-x, y, z'
  4  'x+1/2, -y, z+1/2'
loop_
 _atom_site_type_symbol
 _atom_site_label
 _atom_site_symmetry_multiplicity
 _atom_site_fract_x
 _atom_site_fract_y
 _atom_site_fract_z
 _atom_site_occupancy
  Na  Na0  4  0.24452097  0.67555995  0.00512875  1
  Na  Na1  2  0.00000000  0.84456717  0.50783271  1
  As  As2  2  0.00000000  0.17750924  0.99654681  1
  O  O3  4  0.20212106  0.31172091  0.09808224  1
  O  O4  2  0.00000000  0.18354386  0.68708294  1
  O  O5  2  0.00000000  0.90682212  0.09531675  1
