# generated using pymatgen
data_Na4Sc2O5
_symmetry_space_group_name_H-M   P2_1/c
_cell_length_a   9.13982009
_cell_length_b   6.03924453
_cell_length_c   13.43475068
_cell_angle_alpha   90.00000000
_cell_angle_beta   116.86420853
_cell_angle_gamma   90.00000000
_symmetry_Int_Tables_number   14
_chemical_formula_structural   Na4Sc2O5
_chemical_formula_sum   'Na16 Sc8 O20'
_cell_volume   661.53628014
_cell_formula_units_Z   4
loop_
 _symmetry_equiv_pos_site_id
 _symmetry_equiv_pos_as_xyz
  1  'x, y, z'
  2  '-x, -y, -z'
  3  '-x, y+1/2, -z+1/2'
  4  'x, -y+1/2, z+1/2'
loop_
 _atom_site_type_symbol
 _atom_site_label
 _atom_site_symmetry_multiplicity
 _atom_site_fract_x
 _atom_site_fract_y
 _atom_site_fract_z
 _atom_site_occupancy
  Na  Na0  4  0.13649356  0.60763123  0.62622469  1
  Na  Na1  4  0.18547359  0.07273941  0.52185435  1
  Na  Na2  4  0.30007316  0.58607247  0.46836896  1
  Na  Na3  4  0.40358027  0.10532329  0.38783508  1
  Sc  Sc4  4  0.03645862  0.17304893  0.70675927  1
  Sc  Sc5  4  0.45147074  0.61145167  0.29981037  1
  O  O6  4  0.02602391  0.74583408  0.44762582  1
  O  O7  4  0.13026924  0.04657462  0.29509444  1
  O  O8  4  0.22525644  0.53830982  0.27129168  1
  O  O9  4  0.42538602  0.68027440  0.67400348  1
  O  O10  4  0.44088094  0.23886798  0.55723086  1
