# generated using pymatgen
data_NaAlSiH2O5
_symmetry_space_group_name_H-M   Pna2_1
_cell_length_a   13.18075255
_cell_length_b   7.61285394
_cell_length_c   5.52793105
_cell_angle_alpha   90.00000000
_cell_angle_beta   90.00000000
_cell_angle_gamma   90.00000000
_symmetry_Int_Tables_number   33
_chemical_formula_structural   NaAlSiH2O5
_chemical_formula_sum   'Na4 Al4 Si4 H8 O20'
_cell_volume   554.68998128
_cell_formula_units_Z   4
loop_
 _symmetry_equiv_pos_site_id
 _symmetry_equiv_pos_as_xyz
  1  'x, y, z'
  2  '-x, -y, z+1/2'
  3  '-x+1/2, y+1/2, z+1/2'
  4  'x+1/2, -y+1/2, z'
loop_
 _atom_site_type_symbol
 _atom_site_label
 _atom_site_symmetry_multiplicity
 _atom_site_fract_x
 _atom_site_fract_y
 _atom_site_fract_z
 _atom_site_occupancy
  Na  Na0  4  0.07908951  0.51599344  0.83061818  1
  Al  Al1  4  0.20449684  0.10957074  0.59395632  1
  Si  Si2  4  0.20183954  0.89415669  0.08569100  1
  H  H3  4  0.05984774  0.20679443  0.12903339  1
  H  H4  4  0.10564681  0.34511302  0.30539748  1
  O  O5  4  0.05670177  0.33195889  0.16727858  1
  O  O6  4  0.16237465  0.00288630  0.85179787  1
  O  O7  4  0.16494102  0.68586839  0.09423342  1
  O  O8  4  0.17250509  0.34457809  0.57222425  1
  O  O9  4  0.17326597  0.00121866  0.32905845  1
