# generated using pymatgen
data_NaCaF3
_symmetry_space_group_name_H-M   P2_1/c
_cell_length_a   5.73536941
_cell_length_b   5.98301878
_cell_length_c   10.07626922
_cell_angle_alpha   90.00000000
_cell_angle_beta   123.67898318
_cell_angle_gamma   90.00000000
_symmetry_Int_Tables_number   14
_chemical_formula_structural   NaCaF3
_chemical_formula_sum   'Na4 Ca4 F12'
_cell_volume   287.73129642
_cell_formula_units_Z   4
loop_
 _symmetry_equiv_pos_site_id
 _symmetry_equiv_pos_as_xyz
  1  'x, y, z'
  2  '-x, -y, -z'
  3  '-x, y+1/2, -z+1/2'
  4  'x, -y+1/2, z+1/2'
loop_
 _atom_site_type_symbol
 _atom_site_label
 _atom_site_symmetry_multiplicity
 _atom_site_fract_x
 _atom_site_fract_y
 _atom_site_fract_z
 _atom_site_occupancy
  Na  Na0  4  0.27087076  0.55755911  0.25673414  1
  Ca  Ca1  2  0.00000000  0.00000000  0.00000000  1
  Ca  Ca2  2  0.50000000  0.00000000  0.50000000  1
  F  F3  4  0.11224018  0.57744199  0.75078258  1
  F  F4  4  0.26255629  0.18858912  0.58026271  1
  F  F5  4  0.38990211  0.68326656  0.56878165  1
