# generated using pymatgen
data_NaCdF3
_symmetry_space_group_name_H-M   P2_1/c
_cell_length_a   5.70463428
_cell_length_b   5.97200703
_cell_length_c   10.02390209
_cell_angle_alpha   90.00000000
_cell_angle_beta   123.56617252
_cell_angle_gamma   90.00000000
_symmetry_Int_Tables_number   14
_chemical_formula_structural   NaCdF3
_chemical_formula_sum   'Na4 Cd4 F12'
_cell_volume   284.55034646
_cell_formula_units_Z   4
loop_
 _symmetry_equiv_pos_site_id
 _symmetry_equiv_pos_as_xyz
  1  'x, y, z'
  2  '-x, -y, -z'
  3  '-x, y+1/2, -z+1/2'
  4  'x, -y+1/2, z+1/2'
loop_
 _atom_site_type_symbol
 _atom_site_label
 _atom_site_symmetry_multiplicity
 _atom_site_fract_x
 _atom_site_fract_y
 _atom_site_fract_z
 _atom_site_occupancy
  Na  Na0  4  0.22719820  0.06317384  0.74303251  1
  Cd  Cd1  2  0.00000000  0.00000000  0.00000000  1
  Cd  Cd2  2  0.50000000  0.00000000  0.50000000  1
  F  F3  4  0.10833030  0.18247413  0.43056996  1
  F  F4  4  0.23651945  0.68847346  0.41819510  1
  F  F5  4  0.39092225  0.07753514  0.24947162  1
