# generated using pymatgen
data_NaCd2Cl5
_symmetry_space_group_name_H-M   Pnnm
_cell_length_a   9.37645820
_cell_length_b   11.96312423
_cell_length_c   8.40233311
_cell_angle_alpha   90.00000000
_cell_angle_beta   90.00000000
_cell_angle_gamma   90.00000000
_symmetry_Int_Tables_number   58
_chemical_formula_structural   NaCd2Cl5
_chemical_formula_sum   'Na4 Cd8 Cl20'
_cell_volume   942.50427698
_cell_formula_units_Z   4
loop_
 _symmetry_equiv_pos_site_id
 _symmetry_equiv_pos_as_xyz
  1  'x, y, z'
  2  '-x, -y, -z'
  3  '-x, -y, z'
  4  'x, y, -z'
  5  'x+1/2, -y+1/2, -z+1/2'
  6  '-x+1/2, y+1/2, z+1/2'
  7  '-x+1/2, y+1/2, -z+1/2'
  8  'x+1/2, -y+1/2, z+1/2'
loop_
 _atom_site_type_symbol
 _atom_site_label
 _atom_site_symmetry_multiplicity
 _atom_site_fract_x
 _atom_site_fract_y
 _atom_site_fract_z
 _atom_site_occupancy
  Na  Na0  4  0.00000000  0.00000000  0.27337676  1
  Cd  Cd1  4  0.11268740  0.27908400  0.00000000  1
  Cd  Cd2  4  0.12111037  0.36962295  0.50000000  1
  Cl  Cl3  8  0.13788426  0.20949278  0.28059238  1
  Cl  Cl4  4  0.00000000  0.50000000  0.29482246  1
  Cl  Cl5  4  0.10790188  0.88332059  0.00000000  1
  Cl  Cl6  4  0.20795195  0.93222046  0.50000000  1
