# generated using pymatgen
data_NaCoO2
_symmetry_space_group_name_H-M   P2_1/m
_cell_length_a   2.95558455
_cell_length_b   4.52110204
_cell_length_c   6.50463602
_cell_angle_alpha   90.00000000
_cell_angle_beta   92.86687049
_cell_angle_gamma   90.00000000
_symmetry_Int_Tables_number   11
_chemical_formula_structural   NaCoO2
_chemical_formula_sum   'Na2 Co2 O4'
_cell_volume   86.80941145
_cell_formula_units_Z   2
loop_
 _symmetry_equiv_pos_site_id
 _symmetry_equiv_pos_as_xyz
  1  'x, y, z'
  2  '-x, -y, -z'
  3  '-x, y+1/2, -z'
  4  'x, -y+1/2, z'
loop_
 _atom_site_type_symbol
 _atom_site_label
 _atom_site_symmetry_multiplicity
 _atom_site_fract_x
 _atom_site_fract_y
 _atom_site_fract_z
 _atom_site_occupancy
  Na  Na0  2  0.23439904  0.75000000  0.12163473  1
  Co  Co1  2  0.25370994  0.75000000  0.62227648  1
  O  O2  2  0.23786035  0.25000000  0.58771383  1
  O  O3  2  0.29728869  0.25000000  0.17357714  1
