# generated using pymatgen
data_NaMg2Cl5
_symmetry_space_group_name_H-M   Pnnm
_cell_length_a   9.11212318
_cell_length_b   11.56611263
_cell_length_c   8.08556507
_cell_angle_alpha   90.00000000
_cell_angle_beta   90.00000000
_cell_angle_gamma   90.00000000
_symmetry_Int_Tables_number   58
_chemical_formula_structural   NaMg2Cl5
_chemical_formula_sum   'Na4 Mg8 Cl20'
_cell_volume   852.15260441
_cell_formula_units_Z   4
loop_
 _symmetry_equiv_pos_site_id
 _symmetry_equiv_pos_as_xyz
  1  'x, y, z'
  2  '-x, -y, -z'
  3  '-x, -y, z'
  4  'x, y, -z'
  5  'x+1/2, -y+1/2, -z+1/2'
  6  '-x+1/2, y+1/2, z+1/2'
  7  '-x+1/2, y+1/2, -z+1/2'
  8  'x+1/2, -y+1/2, z+1/2'
loop_
 _atom_site_type_symbol
 _atom_site_label
 _atom_site_symmetry_multiplicity
 _atom_site_fract_x
 _atom_site_fract_y
 _atom_site_fract_z
 _atom_site_occupancy
  Na  Na0  4  0.00000000  0.50000000  0.22256638  1
  Mg  Mg1  4  0.09648521  0.78394691  0.50000000  1
  Mg  Mg2  4  0.11751746  0.86781924  0.00000000  1
  Cl  Cl3  8  0.12854778  0.71718045  0.22206280  1
  Cl  Cl4  4  0.00000000  0.00000000  0.20028628  1
  Cl  Cl5  4  0.11720523  0.38078390  0.50000000  1
  Cl  Cl6  4  0.21759586  0.42559956  0.00000000  1
