# generated using pymatgen
data_NaMnF3
_symmetry_space_group_name_H-M   P2_1/c
_cell_length_a   5.57174613
_cell_length_b   5.80736048
_cell_length_c   9.76030119
_cell_angle_alpha   90.00000000
_cell_angle_beta   123.81043947
_cell_angle_gamma   90.00000000
_symmetry_Int_Tables_number   14
_chemical_formula_structural   NaMnF3
_chemical_formula_sum   'Na4 Mn4 F12'
_cell_volume   262.40569030
_cell_formula_units_Z   4
loop_
 _symmetry_equiv_pos_site_id
 _symmetry_equiv_pos_as_xyz
  1  'x, y, z'
  2  '-x, -y, -z'
  3  '-x, y+1/2, -z+1/2'
  4  'x, -y+1/2, z+1/2'
loop_
 _atom_site_type_symbol
 _atom_site_label
 _atom_site_symmetry_multiplicity
 _atom_site_fract_x
 _atom_site_fract_y
 _atom_site_fract_z
 _atom_site_occupancy
  Na  Na0  4  0.27277965  0.55949877  0.75532852  1
  Mn  Mn1  2  0.00000000  0.00000000  0.50000000  1
  Mn  Mn2  2  0.50000000  0.00000000  0.00000000  1
  F  F3  4  0.12890629  0.55321817  0.25091646  1
  F  F4  4  0.26125488  0.19732119  0.06897718  1
  F  F5  4  0.37062115  0.69404585  0.06063448  1
