# generated using pymatgen
data_NaMnF3
_symmetry_space_group_name_H-M   Pnma
_cell_length_a   5.85076045
_cell_length_b   8.14105799
_cell_length_c   5.55909730
_cell_angle_alpha   90.00000000
_cell_angle_beta   90.00000000
_cell_angle_gamma   90.00000000
_symmetry_Int_Tables_number   62
_chemical_formula_structural   NaMnF3
_chemical_formula_sum   'Na4 Mn4 F12'
_cell_volume   264.78747656
_cell_formula_units_Z   4
loop_
 _symmetry_equiv_pos_site_id
 _symmetry_equiv_pos_as_xyz
  1  'x, y, z'
  2  '-x, -y, -z'
  3  '-x+1/2, -y, z+1/2'
  4  'x+1/2, y, -z+1/2'
  5  'x+1/2, -y+1/2, -z+1/2'
  6  '-x+1/2, y+1/2, z+1/2'
  7  '-x, y+1/2, -z'
  8  'x, -y+1/2, z'
loop_
 _atom_site_type_symbol
 _atom_site_label
 _atom_site_symmetry_multiplicity
 _atom_site_fract_x
 _atom_site_fract_y
 _atom_site_fract_z
 _atom_site_occupancy
  Na  Na0  4  0.05865467  0.75000000  0.47870445  1
  Mn  Mn1  4  0.00000000  0.00000000  0.00000000  1
  F  F2  8  0.20003218  0.06588924  0.69471491  1
  F  F3  4  0.05461134  0.25000000  0.12236634  1
