# generated using pymatgen
data_NaSb2PO8
_symmetry_space_group_name_H-M   C2/c
_cell_length_a   12.17389257
_cell_length_b   7.15260423
_cell_length_c   15.22401764
_cell_angle_alpha   90.00000000
_cell_angle_beta   94.25925326
_cell_angle_gamma   90.00000000
_symmetry_Int_Tables_number   15
_chemical_formula_structural   NaSb2PO8
_chemical_formula_sum   'Na8 Sb16 P8 O64'
_cell_volume   1321.97075172
_cell_formula_units_Z   8
loop_
 _symmetry_equiv_pos_site_id
 _symmetry_equiv_pos_as_xyz
  1  'x, y, z'
  2  '-x, -y, -z'
  3  '-x, y, -z+1/2'
  4  'x, -y, z+1/2'
  5  'x+1/2, y+1/2, z'
  6  '-x+1/2, -y+1/2, -z'
  7  '-x+1/2, y+1/2, -z+1/2'
  8  'x+1/2, -y+1/2, z+1/2'
loop_
 _atom_site_type_symbol
 _atom_site_label
 _atom_site_symmetry_multiplicity
 _atom_site_fract_x
 _atom_site_fract_y
 _atom_site_fract_z
 _atom_site_occupancy
  Na  Na0  8  0.02979382  0.12653437  0.87241944  1
  Sb  Sb1  8  0.17654464  0.36738353  0.43781295  1
  Sb  Sb2  8  0.24766734  0.37538931  0.75274908  1
  P  P3  8  0.10302935  0.38412973  0.10608414  1
  O  O4  8  0.01176148  0.36288244  0.44148243  1
  O  O5  8  0.10819995  0.45300920  0.67426436  1
  O  O6  8  0.12774402  0.19567460  0.15423293  1
  O  O7  8  0.15700171  0.17436720  0.34358405  1
  O  O8  8  0.15971565  0.42070801  0.85514365  1
  O  O9  8  0.16328307  0.17044278  0.53247703  1
  O  O10  8  0.17866987  0.12413144  0.74646451  1
  O  O11  8  0.18300717  0.42044566  0.03357374  1
