# generated using pymatgen
data_NaScO2
_symmetry_space_group_name_H-M   Pmmn
_cell_length_a   3.16258395
_cell_length_b   4.43213628
_cell_length_c   6.78531267
_cell_angle_alpha   90.00000000
_cell_angle_beta   90.00000000
_cell_angle_gamma   90.00000000
_symmetry_Int_Tables_number   59
_chemical_formula_structural   NaScO2
_chemical_formula_sum   'Na2 Sc2 O4'
_cell_volume   95.10974848
_cell_formula_units_Z   2
loop_
 _symmetry_equiv_pos_site_id
 _symmetry_equiv_pos_as_xyz
  1  'x, y, z'
  2  '-x, -y, z'
  3  'x+1/2, -y+1/2, -z'
  4  '-x+1/2, y+1/2, -z'
  5  '-x+1/2, -y+1/2, -z'
  6  'x+1/2, y+1/2, -z'
  7  '-x, y, z'
  8  'x, -y, z'
loop_
 _atom_site_type_symbol
 _atom_site_label
 _atom_site_symmetry_multiplicity
 _atom_site_fract_x
 _atom_site_fract_y
 _atom_site_fract_z
 _atom_site_occupancy
  Na  Na0  2  0.00000000  0.00000000  0.10860674  1
  Sc  Sc1  2  0.00000000  0.00000000  0.63203937  1
  O  O2  2  0.00000000  0.50000000  0.17276742  1
  O  O3  2  0.00000000  0.50000000  0.59217137  1
