# generated using pymatgen
data_NaZnF3
_symmetry_space_group_name_H-M   P2_1/c
_cell_length_a   5.46391367
_cell_length_b   5.68311645
_cell_length_c   9.54705671
_cell_angle_alpha   90.00000000
_cell_angle_beta   124.31919417
_cell_angle_gamma   90.00000000
_symmetry_Int_Tables_number   14
_chemical_formula_structural   NaZnF3
_chemical_formula_sum   'Na4 Zn4 F12'
_cell_volume   244.84561472
_cell_formula_units_Z   4
loop_
 _symmetry_equiv_pos_site_id
 _symmetry_equiv_pos_as_xyz
  1  'x, y, z'
  2  '-x, -y, -z'
  3  '-x, y+1/2, -z+1/2'
  4  'x, -y+1/2, z+1/2'
loop_
 _atom_site_type_symbol
 _atom_site_label
 _atom_site_symmetry_multiplicity
 _atom_site_fract_x
 _atom_site_fract_y
 _atom_site_fract_z
 _atom_site_occupancy
  Na  Na0  4  0.22822308  0.05960213  0.74598627  1
  Zn  Zn1  2  0.00000000  0.00000000  0.00000000  1
  Zn  Zn2  2  0.50000000  0.00000000  0.50000000  1
  F  F3  4  0.14142547  0.19971807  0.44531603  1
  F  F4  4  0.24250350  0.70170028  0.43959896  1
  F  F5  4  0.35912869  0.04062849  0.24951901  1
