# generated using pymatgen
data_NdSbO4
_symmetry_space_group_name_H-M   Pna2_1
_cell_length_a   15.32049389
_cell_length_b   7.74494351
_cell_length_c   5.56633538
_cell_angle_alpha   90.00000000
_cell_angle_beta   90.00000000
_cell_angle_gamma   90.00000000
_symmetry_Int_Tables_number   33
_chemical_formula_structural   NdSbO4
_chemical_formula_sum   'Nd8 Sb8 O32'
_cell_volume   660.48109319
_cell_formula_units_Z   8
loop_
 _symmetry_equiv_pos_site_id
 _symmetry_equiv_pos_as_xyz
  1  'x, y, z'
  2  '-x, -y, z+1/2'
  3  '-x+1/2, y+1/2, z+1/2'
  4  'x+1/2, -y+1/2, z'
loop_
 _atom_site_type_symbol
 _atom_site_label
 _atom_site_symmetry_multiplicity
 _atom_site_fract_x
 _atom_site_fract_y
 _atom_site_fract_z
 _atom_site_occupancy
  Nd  Nd0  4  0.05956517  0.62236716  0.80340165  1
  Nd  Nd1  4  0.09211794  0.11782013  0.74685729  1
  Sb  Sb2  4  0.16625389  0.86947769  0.25001202  1
  Sb  Sb3  4  0.16884101  0.37310740  0.24347341  1
  O  O4  4  0.05481377  0.89772932  0.05595096  1
  O  O5  4  0.06170543  0.34459438  0.04008575  1
  O  O6  4  0.08225617  0.39709786  0.51507963  1
  O  O7  4  0.09937266  0.84233180  0.54475625  1
  O  O8  4  0.15856609  0.62206549  0.14433892  1
  O  O9  4  0.16875475  0.12347128  0.35205333  1
  O  O10  4  0.22016802  0.31927979  0.91295602  1
  O  O11  4  0.22346198  0.93275623  0.92918979  1
