# generated using pymatgen
data_PH3Se4
_symmetry_space_group_name_H-M   Pmn2_1
_cell_length_a   8.51891632
_cell_length_b   7.30284742
_cell_length_c   6.95678729
_cell_angle_alpha   90.00000000
_cell_angle_beta   90.00000000
_cell_angle_gamma   90.00000000
_symmetry_Int_Tables_number   31
_chemical_formula_structural   PH3Se4
_chemical_formula_sum   'P2 H6 Se8'
_cell_volume   432.79805841
_cell_formula_units_Z   2
loop_
 _symmetry_equiv_pos_site_id
 _symmetry_equiv_pos_as_xyz
  1  'x, y, z'
  2  '-x+1/2, -y, z+1/2'
  3  '-x, y, z'
  4  'x+1/2, -y, z+1/2'
loop_
 _atom_site_type_symbol
 _atom_site_label
 _atom_site_symmetry_multiplicity
 _atom_site_fract_x
 _atom_site_fract_y
 _atom_site_fract_z
 _atom_site_occupancy
  P  P0  2  0.00000000  0.62587130  0.45739953  1
  H  H1  4  0.21526488  0.70903161  0.15969667  1
  H  H2  2  0.00000000  0.53738821  0.84068803  1
  Se  Se3  4  0.22081182  0.77839105  0.36130999  1
  Se  Se4  2  0.00000000  0.34266415  0.40424820  1
  Se  Se5  2  0.00000000  0.72910619  0.76892929  1
