# generated using pymatgen
data_PI
_symmetry_space_group_name_H-M   P-1
_cell_length_a   5.13174402
_cell_length_b   6.29048585
_cell_length_c   6.70548189
_cell_angle_alpha   92.78906087
_cell_angle_beta   91.79777132
_cell_angle_gamma   110.56960234
_symmetry_Int_Tables_number   2
_chemical_formula_structural   PI
_chemical_formula_sum   'P2 I2'
_cell_volume   202.14840130
_cell_formula_units_Z   2
loop_
 _symmetry_equiv_pos_site_id
 _symmetry_equiv_pos_as_xyz
  1  'x, y, z'
  2  '-x, -y, -z'
loop_
 _atom_site_type_symbol
 _atom_site_label
 _atom_site_symmetry_multiplicity
 _atom_site_fract_x
 _atom_site_fract_y
 _atom_site_fract_z
 _atom_site_occupancy
  P  P0  2  0.36094687  0.49767370  0.38671463  1
  I  I1  2  0.33887412  0.16325419  0.77221931  1
