# generated using pymatgen
data_Pr2SnS5
_symmetry_space_group_name_H-M   Pbam
_cell_length_a   7.93245675
_cell_length_b   11.51877898
_cell_length_c   3.96308494
_cell_angle_alpha   90.00000000
_cell_angle_beta   90.00000000
_cell_angle_gamma   90.00000000
_symmetry_Int_Tables_number   55
_chemical_formula_structural   Pr2SnS5
_chemical_formula_sum   'Pr4 Sn2 S10'
_cell_volume   362.11585345
_cell_formula_units_Z   2
loop_
 _symmetry_equiv_pos_site_id
 _symmetry_equiv_pos_as_xyz
  1  'x, y, z'
  2  '-x, -y, -z'
  3  '-x, -y, z'
  4  'x, y, -z'
  5  'x+1/2, -y+1/2, -z'
  6  '-x+1/2, y+1/2, z'
  7  '-x+1/2, y+1/2, -z'
  8  'x+1/2, -y+1/2, z'
loop_
 _atom_site_type_symbol
 _atom_site_label
 _atom_site_symmetry_multiplicity
 _atom_site_fract_x
 _atom_site_fract_y
 _atom_site_fract_z
 _atom_site_occupancy
  Pr  Pr0  4  0.04648178  0.67224402  0.50000000  1
  Sn  Sn1  2  0.00000000  0.00000000  0.00000000  1
  S  S2  4  0.16360930  0.19633342  0.00000000  1
  S  S3  4  0.17631259  0.91478369  0.50000000  1
  S  S4  2  0.00000000  0.50000000  0.00000000  1
