# generated using pymatgen
data_Pr3Se2NO
_symmetry_space_group_name_H-M   C2/m
_cell_length_a   16.19164196
_cell_length_b   4.10916031
_cell_length_c   10.17523522
_cell_angle_alpha   90.00000000
_cell_angle_beta   97.49877429
_cell_angle_gamma   90.00000000
_symmetry_Int_Tables_number   12
_chemical_formula_structural   Pr3Se2NO
_chemical_formula_sum   'Pr12 Se8 N4 O4'
_cell_volume   671.20969909
_cell_formula_units_Z   4
loop_
 _symmetry_equiv_pos_site_id
 _symmetry_equiv_pos_as_xyz
  1  'x, y, z'
  2  '-x, -y, -z'
  3  '-x, y, -z'
  4  'x, -y, z'
  5  'x+1/2, y+1/2, z'
  6  '-x+1/2, -y+1/2, -z'
  7  '-x+1/2, y+1/2, -z'
  8  'x+1/2, -y+1/2, z'
loop_
 _atom_site_type_symbol
 _atom_site_label
 _atom_site_symmetry_multiplicity
 _atom_site_fract_x
 _atom_site_fract_y
 _atom_site_fract_z
 _atom_site_occupancy
  Pr  Pr0  4  0.04477595  0.00000000  0.26317826  1
  Pr  Pr1  4  0.10984865  0.50000000  0.94724737  1
  Pr  Pr2  4  0.19793438  0.00000000  0.67365972  1
  Se  Se3  4  0.12854841  0.50000000  0.47446721  1
  Se  Se4  4  0.21211169  0.00000000  0.15053634  1
  N  N5  4  0.09812078  0.00000000  0.81222247  1
  O  O6  4  0.03528241  0.50000000  0.14055878  1
