# generated using pymatgen
data_Rb2PbO3
_symmetry_space_group_name_H-M   Pnma
_cell_length_a   6.16542473
_cell_length_b   11.14152089
_cell_length_c   7.46831605
_cell_angle_alpha   90.00000000
_cell_angle_beta   90.00000000
_cell_angle_gamma   90.00000000
_symmetry_Int_Tables_number   62
_chemical_formula_structural   Rb2PbO3
_chemical_formula_sum   'Rb8 Pb4 O12'
_cell_volume   513.01512269
_cell_formula_units_Z   4
loop_
 _symmetry_equiv_pos_site_id
 _symmetry_equiv_pos_as_xyz
  1  'x, y, z'
  2  '-x, -y, -z'
  3  '-x+1/2, -y, z+1/2'
  4  'x+1/2, y, -z+1/2'
  5  'x+1/2, -y+1/2, -z+1/2'
  6  '-x+1/2, y+1/2, z+1/2'
  7  '-x, y+1/2, -z'
  8  'x, -y+1/2, z'
loop_
 _atom_site_type_symbol
 _atom_site_label
 _atom_site_symmetry_multiplicity
 _atom_site_fract_x
 _atom_site_fract_y
 _atom_site_fract_z
 _atom_site_occupancy
  Rb  Rb0  8  0.23265718  0.58721848  0.10958126  1
  Pb  Pb1  4  0.23190704  0.25000000  0.15761576  1
  O  O2  8  0.00664832  0.62072688  0.72381465  1
  O  O3  4  0.15231935  0.25000000  0.88953239  1
