# generated using pymatgen
data_Rb2S
_symmetry_space_group_name_H-M   P2_12_12_1
_cell_length_a   5.19511874
_cell_length_b   8.44170083
_cell_length_c   10.00436873
_cell_angle_alpha   90.00000000
_cell_angle_beta   90.00000000
_cell_angle_gamma   90.00000000
_symmetry_Int_Tables_number   19
_chemical_formula_structural   Rb2S
_chemical_formula_sum   'Rb8 S4'
_cell_volume   438.74797524
_cell_formula_units_Z   4
loop_
 _symmetry_equiv_pos_site_id
 _symmetry_equiv_pos_as_xyz
  1  'x, y, z'
  2  '-x+1/2, -y, z+1/2'
  3  'x+1/2, -y+1/2, -z'
  4  '-x, y+1/2, -z+1/2'
loop_
 _atom_site_type_symbol
 _atom_site_label
 _atom_site_symmetry_multiplicity
 _atom_site_fract_x
 _atom_site_fract_y
 _atom_site_fract_z
 _atom_site_occupancy
  Rb  Rb0  4  0.00810134  0.39483071  0.92202893  1
  Rb  Rb1  4  0.01721826  0.76737856  0.16777047  1
  S  S2  4  0.01224709  0.99903415  0.89447345  1
