# generated using pymatgen
data_Rb2SeO3
_symmetry_space_group_name_H-M   Pnma
_cell_length_a   7.35547857
_cell_length_b   10.72143003
_cell_length_c   6.76332275
_cell_angle_alpha   90.00000000
_cell_angle_beta   90.00000000
_cell_angle_gamma   90.00000000
_symmetry_Int_Tables_number   62
_chemical_formula_structural   Rb2SeO3
_chemical_formula_sum   'Rb8 Se4 O12'
_cell_volume   533.36407827
_cell_formula_units_Z   4
loop_
 _symmetry_equiv_pos_site_id
 _symmetry_equiv_pos_as_xyz
  1  'x, y, z'
  2  '-x, -y, -z'
  3  '-x+1/2, -y, z+1/2'
  4  'x+1/2, y, -z+1/2'
  5  'x+1/2, -y+1/2, -z+1/2'
  6  '-x+1/2, y+1/2, z+1/2'
  7  '-x, y+1/2, -z'
  8  'x, -y+1/2, z'
loop_
 _atom_site_type_symbol
 _atom_site_label
 _atom_site_symmetry_multiplicity
 _atom_site_fract_x
 _atom_site_fract_y
 _atom_site_fract_z
 _atom_site_occupancy
  Rb  Rb0  8  0.21786905  0.07666936  0.09475385  1
  Se  Se1  4  0.11551766  0.25000000  0.60036518  1
  O  O2  8  0.02139999  0.12076439  0.71593018  1
  O  O3  4  0.01257076  0.25000000  0.36772342  1
