# generated using pymatgen
data_Rb2TbO3
_symmetry_space_group_name_H-M   Pnma
_cell_length_a   6.37850310
_cell_length_b   11.19309555
_cell_length_c   7.46354372
_cell_angle_alpha   90.00000000
_cell_angle_beta   90.00000000
_cell_angle_gamma   90.00000000
_symmetry_Int_Tables_number   62
_chemical_formula_structural   Rb2TbO3
_chemical_formula_sum   'Rb8 Tb4 O12'
_cell_volume   532.86115694
_cell_formula_units_Z   4
loop_
 _symmetry_equiv_pos_site_id
 _symmetry_equiv_pos_as_xyz
  1  'x, y, z'
  2  '-x, -y, -z'
  3  '-x+1/2, -y, z+1/2'
  4  'x+1/2, y, -z+1/2'
  5  'x+1/2, -y+1/2, -z+1/2'
  6  '-x+1/2, y+1/2, z+1/2'
  7  '-x, y+1/2, -z'
  8  'x, -y+1/2, z'
loop_
 _atom_site_type_symbol
 _atom_site_label
 _atom_site_symmetry_multiplicity
 _atom_site_fract_x
 _atom_site_fract_y
 _atom_site_fract_z
 _atom_site_occupancy
  Rb  Rb0  8  0.24074829  0.58476547  0.61106242  1
  Tb  Tb1  4  0.22454944  0.25000000  0.65455178  1
  O  O2  8  0.00899406  0.62371932  0.22328683  1
  O  O3  4  0.14024401  0.25000000  0.37835493  1
