# generated using pymatgen
data_Rb2ZrO3
_symmetry_space_group_name_H-M   Pnma
_cell_length_a   5.95828369
_cell_length_b   10.95456179
_cell_length_c   7.43587336
_cell_angle_alpha   90.00000000
_cell_angle_beta   90.00000000
_cell_angle_gamma   90.00000000
_symmetry_Int_Tables_number   62
_chemical_formula_structural   Rb2ZrO3
_chemical_formula_sum   'Rb8 Zr4 O12'
_cell_volume   485.34233073
_cell_formula_units_Z   4
loop_
 _symmetry_equiv_pos_site_id
 _symmetry_equiv_pos_as_xyz
  1  'x, y, z'
  2  '-x, -y, -z'
  3  '-x+1/2, -y, z+1/2'
  4  'x+1/2, y, -z+1/2'
  5  'x+1/2, -y+1/2, -z+1/2'
  6  '-x+1/2, y+1/2, z+1/2'
  7  '-x, y+1/2, -z'
  8  'x, -y+1/2, z'
loop_
 _atom_site_type_symbol
 _atom_site_label
 _atom_site_symmetry_multiplicity
 _atom_site_fract_x
 _atom_site_fract_y
 _atom_site_fract_z
 _atom_site_occupancy
  Rb  Rb0  8  0.24273181  0.58700053  0.10949051  1
  Zr  Zr1  4  0.22771836  0.25000000  0.16338620  1
  O  O2  8  0.01458689  0.62699310  0.73876512  1
  O  O3  4  0.19100045  0.25000000  0.90635670  1
