# generated using pymatgen
data_Rb3YV2O8
_symmetry_space_group_name_H-M   P-3m1
_cell_length_a   6.07941943
_cell_length_b   6.07941943
_cell_length_c   8.03011875
_cell_angle_alpha   90.00000000
_cell_angle_beta   90.00000000
_cell_angle_gamma   120.00000000
_symmetry_Int_Tables_number   164
_chemical_formula_structural   Rb3YV2O8
_chemical_formula_sum   'Rb3 Y1 V2 O8'
_cell_volume   257.02585538
_cell_formula_units_Z   1
loop_
 _symmetry_equiv_pos_site_id
 _symmetry_equiv_pos_as_xyz
  1  'x, y, z'
  2  '-x, -y, -z'
  3  '-y, x-y, z'
  4  'y, -x+y, -z'
  5  '-x+y, -x, z'
  6  'x-y, x, -z'
  7  'y, x, -z'
  8  '-y, -x, z'
  9  'x-y, -y, -z'
  10  '-x+y, y, z'
  11  '-x, -x+y, -z'
  12  'x, x-y, z'
loop_
 _atom_site_type_symbol
 _atom_site_label
 _atom_site_symmetry_multiplicity
 _atom_site_fract_x
 _atom_site_fract_y
 _atom_site_fract_z
 _atom_site_occupancy
  Rb  Rb0  2  0.33333333  0.66666667  0.70847377  1
  Rb  Rb1  1  0.00000000  0.00000000  0.00000000  1
  Y  Y2  1  0.00000000  0.00000000  0.50000000  1
  V  V3  2  0.33333333  0.66666667  0.26143425  1
  O  O4  6  0.17471875  0.34943749  0.33426518  1
  O  O5  2  0.33333333  0.66666667  0.05171533  1
