# generated using pymatgen
data_RbCoSe2
_symmetry_space_group_name_H-M   C2/c
_cell_length_a   7.47096571
_cell_length_b   12.01179900
_cell_length_c   5.46842593
_cell_angle_alpha   90.00000000
_cell_angle_beta   111.73701738
_cell_angle_gamma   90.00000000
_symmetry_Int_Tables_number   15
_chemical_formula_structural   RbCoSe2
_chemical_formula_sum   'Rb4 Co4 Se8'
_cell_volume   455.84065344
_cell_formula_units_Z   4
loop_
 _symmetry_equiv_pos_site_id
 _symmetry_equiv_pos_as_xyz
  1  'x, y, z'
  2  '-x, -y, -z'
  3  '-x, y, -z+1/2'
  4  'x, -y, z+1/2'
  5  'x+1/2, y+1/2, z'
  6  '-x+1/2, -y+1/2, -z'
  7  '-x+1/2, y+1/2, -z+1/2'
  8  'x+1/2, -y+1/2, z+1/2'
loop_
 _atom_site_type_symbol
 _atom_site_label
 _atom_site_symmetry_multiplicity
 _atom_site_fract_x
 _atom_site_fract_y
 _atom_site_fract_z
 _atom_site_occupancy
  Rb  Rb0  4  0.00000000  0.13893613  0.25000000  1
  Co  Co1  4  0.00000000  0.49886166  0.25000000  1
  Se  Se2  8  0.18450072  0.39154611  0.08980739  1
