# generated using pymatgen
data_RbH2ClO
_symmetry_space_group_name_H-M   Cmcm
_cell_length_a   8.87616180
_cell_length_b   9.34191632
_cell_length_c   9.12406746
_cell_angle_alpha   90.00000000
_cell_angle_beta   90.00000000
_cell_angle_gamma   90.00000000
_symmetry_Int_Tables_number   63
_chemical_formula_structural   RbH2ClO
_chemical_formula_sum   'Rb8 H16 Cl8 O8'
_cell_volume   756.57096592
_cell_formula_units_Z   8
loop_
 _symmetry_equiv_pos_site_id
 _symmetry_equiv_pos_as_xyz
  1  'x, y, z'
  2  '-x, -y, -z'
  3  '-x, -y, z+1/2'
  4  'x, y, -z+1/2'
  5  'x, -y, -z'
  6  '-x, y, z'
  7  '-x, y, -z+1/2'
  8  'x, -y, z+1/2'
  9  'x+1/2, y+1/2, z'
  10  '-x+1/2, -y+1/2, -z'
  11  '-x+1/2, -y+1/2, z+1/2'
  12  'x+1/2, y+1/2, -z+1/2'
  13  'x+1/2, -y+1/2, -z'
  14  '-x+1/2, y+1/2, z'
  15  '-x+1/2, y+1/2, -z+1/2'
  16  'x+1/2, -y+1/2, z+1/2'
loop_
 _atom_site_type_symbol
 _atom_site_label
 _atom_site_symmetry_multiplicity
 _atom_site_fract_x
 _atom_site_fract_y
 _atom_site_fract_z
 _atom_site_occupancy
  Rb  Rb0  4  0.00000000  0.13627508  0.75000000  1
  Rb  Rb1  4  0.00000000  0.50000000  0.00000000  1
  H  H2  16  0.08874352  0.17131122  0.11149216  1
  Cl  Cl3  8  0.23556074  0.40187187  0.75000000  1
  O  O4  8  0.00000000  0.20016384  0.05257245  1
