# generated using pymatgen
data_RbHgF3
_symmetry_space_group_name_H-M   P6_3/mmc
_cell_length_a   6.42198421
_cell_length_b   6.42198421
_cell_length_c   15.87138641
_cell_angle_alpha   90.00000000
_cell_angle_beta   90.00000000
_cell_angle_gamma   120.00000000
_symmetry_Int_Tables_number   194
_chemical_formula_structural   RbHgF3
_chemical_formula_sum   'Rb6 Hg6 F18'
_cell_volume   566.87063898
_cell_formula_units_Z   6
loop_
 _symmetry_equiv_pos_site_id
 _symmetry_equiv_pos_as_xyz
  1  'x, y, z'
  2  '-x, -y, -z'
  3  'x-y, x, z+1/2'
  4  '-x+y, -x, -z+1/2'
  5  '-y, x-y, z'
  6  'y, -x+y, -z'
  7  '-x, -y, z+1/2'
  8  'x, y, -z+1/2'
  9  '-x+y, -x, z'
  10  'x-y, x, -z'
  11  'y, -x+y, z+1/2'
  12  '-y, x-y, -z+1/2'
  13  '-y, -x, -z+1/2'
  14  'y, x, z+1/2'
  15  '-x, -x+y, -z'
  16  'x, x-y, z'
  17  '-x+y, y, -z+1/2'
  18  'x-y, -y, z+1/2'
  19  'y, x, -z'
  20  '-y, -x, z'
  21  'x, x-y, -z+1/2'
  22  '-x, -x+y, z+1/2'
  23  'x-y, -y, -z'
  24  '-x+y, y, z'
loop_
 _atom_site_type_symbol
 _atom_site_label
 _atom_site_symmetry_multiplicity
 _atom_site_fract_x
 _atom_site_fract_y
 _atom_site_fract_z
 _atom_site_occupancy
  Rb  Rb0  4  0.33333333  0.66666667  0.10708540  1
  Rb  Rb1  2  0.00000000  0.00000000  0.25000000  1
  Hg  Hg2  4  0.33333333  0.66666667  0.84159393  1
  Hg  Hg3  2  0.00000000  0.00000000  0.00000000  1
  F  F4  12  0.15962879  0.84037121  0.58810190  1
  F  F5  6  0.00668193  0.50334097  0.25000000  1
