# generated using pymatgen
data_RbInSe2
_symmetry_space_group_name_H-M   C2/c
_cell_length_a   7.88388925
_cell_length_b   12.15860580
_cell_length_c   6.71953423
_cell_angle_alpha   90.00000000
_cell_angle_beta   108.57646711
_cell_angle_gamma   90.00000000
_symmetry_Int_Tables_number   15
_chemical_formula_structural   RbInSe2
_chemical_formula_sum   'Rb4 In4 Se8'
_cell_volume   610.55625091
_cell_formula_units_Z   4
loop_
 _symmetry_equiv_pos_site_id
 _symmetry_equiv_pos_as_xyz
  1  'x, y, z'
  2  '-x, -y, -z'
  3  '-x, y, -z+1/2'
  4  'x, -y, z+1/2'
  5  'x+1/2, y+1/2, z'
  6  '-x+1/2, -y+1/2, -z'
  7  '-x+1/2, y+1/2, -z+1/2'
  8  'x+1/2, -y+1/2, z+1/2'
loop_
 _atom_site_type_symbol
 _atom_site_label
 _atom_site_symmetry_multiplicity
 _atom_site_fract_x
 _atom_site_fract_y
 _atom_site_fract_z
 _atom_site_occupancy
  Rb  Rb0  4  0.00000000  0.13794675  0.25000000  1
  In  In1  4  0.00000000  0.48862470  0.75000000  1
  Se  Se2  8  0.20111880  0.38910043  0.09139511  1
