# generated using pymatgen
data_RbMnSe2
_symmetry_space_group_name_H-M   C2/c
_cell_length_a   7.65465695
_cell_length_b   12.29876551
_cell_length_c   5.47238209
_cell_angle_alpha   90.00000000
_cell_angle_beta   111.13508646
_cell_angle_gamma   90.00000000
_symmetry_Int_Tables_number   15
_chemical_formula_structural   RbMnSe2
_chemical_formula_sum   'Rb4 Mn4 Se8'
_cell_volume   480.53050797
_cell_formula_units_Z   4
loop_
 _symmetry_equiv_pos_site_id
 _symmetry_equiv_pos_as_xyz
  1  'x, y, z'
  2  '-x, -y, -z'
  3  '-x, y, -z+1/2'
  4  'x, -y, z+1/2'
  5  'x+1/2, y+1/2, z'
  6  '-x+1/2, -y+1/2, -z'
  7  '-x+1/2, y+1/2, -z+1/2'
  8  'x+1/2, -y+1/2, z+1/2'
loop_
 _atom_site_type_symbol
 _atom_site_label
 _atom_site_symmetry_multiplicity
 _atom_site_fract_x
 _atom_site_fract_y
 _atom_site_fract_z
 _atom_site_occupancy
  Rb  Rb0  4  0.00000000  0.13993392  0.75000000  1
  Mn  Mn1  4  0.00000000  0.49978086  0.25000000  1
  Se  Se2  8  0.18590547  0.39231197  0.59428720  1
