# generated using pymatgen
data_RbMoSe2
_symmetry_space_group_name_H-M   C2/c
_cell_length_a   7.45978287
_cell_length_b   12.59801746
_cell_length_c   5.94372697
_cell_angle_alpha   90.00000000
_cell_angle_beta   113.66275831
_cell_angle_gamma   90.00000000
_symmetry_Int_Tables_number   15
_chemical_formula_structural   RbMoSe2
_chemical_formula_sum   'Rb4 Mo4 Se8'
_cell_volume   511.61883385
_cell_formula_units_Z   4
loop_
 _symmetry_equiv_pos_site_id
 _symmetry_equiv_pos_as_xyz
  1  'x, y, z'
  2  '-x, -y, -z'
  3  '-x, y, -z+1/2'
  4  'x, -y, z+1/2'
  5  'x+1/2, y+1/2, z'
  6  '-x+1/2, -y+1/2, -z'
  7  '-x+1/2, y+1/2, -z+1/2'
  8  'x+1/2, -y+1/2, z+1/2'
loop_
 _atom_site_type_symbol
 _atom_site_label
 _atom_site_symmetry_multiplicity
 _atom_site_fract_x
 _atom_site_fract_y
 _atom_site_fract_z
 _atom_site_occupancy
  Rb  Rb0  4  0.00000000  0.14351408  0.75000000  1
  Mo  Mo1  4  0.00000000  0.49927821  0.25000000  1
  Se  Se2  8  0.20028713  0.39157535  0.60334119  1
