# generated using pymatgen
data_RbSb2PO8
_symmetry_space_group_name_H-M   C2/c
_cell_length_a   12.72313883
_cell_length_b   7.22263725
_cell_length_c   15.27259763
_cell_angle_alpha   90.00000000
_cell_angle_beta   96.70790627
_cell_angle_gamma   90.00000000
_symmetry_Int_Tables_number   15
_chemical_formula_structural   RbSb2PO8
_chemical_formula_sum   'Rb8 Sb16 P8 O64'
_cell_volume   1393.86210870
_cell_formula_units_Z   8
loop_
 _symmetry_equiv_pos_site_id
 _symmetry_equiv_pos_as_xyz
  1  'x, y, z'
  2  '-x, -y, -z'
  3  '-x, y, -z+1/2'
  4  'x, -y, z+1/2'
  5  'x+1/2, y+1/2, z'
  6  '-x+1/2, -y+1/2, -z'
  7  '-x+1/2, y+1/2, -z+1/2'
  8  'x+1/2, -y+1/2, z+1/2'
loop_
 _atom_site_type_symbol
 _atom_site_label
 _atom_site_symmetry_multiplicity
 _atom_site_fract_x
 _atom_site_fract_y
 _atom_site_fract_z
 _atom_site_occupancy
  Rb  Rb0  8  0.02869210  0.11966245  0.38747495  1
  Sb  Sb1  8  0.17673821  0.36752039  0.93619326  1
  Sb  Sb2  8  0.24853153  0.37270925  0.25367983  1
  P  P3  8  0.10007776  0.38830702  0.60591038  1
  O  O4  8  0.01557728  0.36704973  0.93537897  1
  O  O5  8  0.11216300  0.44967331  0.17347793  1
  O  O6  8  0.12934052  0.20032627  0.65185718  1
  O  O7  8  0.16201770  0.18076323  0.84035672  1
  O  O8  8  0.16795392  0.42176058  0.35492922  1
  O  O9  8  0.16848476  0.16436372  0.02624207  1
  O  O10  8  0.17009147  0.42199022  0.53088746  1
  O  O11  8  0.18460679  0.12180464  0.24683754  1
