# generated using pymatgen
data_RhCl4
_symmetry_space_group_name_H-M   C2/c
_cell_length_a   12.96764870
_cell_length_b   5.64168117
_cell_length_c   10.75252530
_cell_angle_alpha   90.00000000
_cell_angle_beta   113.38255978
_cell_angle_gamma   90.00000000
_symmetry_Int_Tables_number   15
_chemical_formula_structural   RhCl4
_chemical_formula_sum   'Rh4 Cl16'
_cell_volume   722.04458158
_cell_formula_units_Z   4
loop_
 _symmetry_equiv_pos_site_id
 _symmetry_equiv_pos_as_xyz
  1  'x, y, z'
  2  '-x, -y, -z'
  3  '-x, y, -z+1/2'
  4  'x, -y, z+1/2'
  5  'x+1/2, y+1/2, z'
  6  '-x+1/2, -y+1/2, -z'
  7  '-x+1/2, y+1/2, -z+1/2'
  8  'x+1/2, -y+1/2, z+1/2'
loop_
 _atom_site_type_symbol
 _atom_site_label
 _atom_site_symmetry_multiplicity
 _atom_site_fract_x
 _atom_site_fract_y
 _atom_site_fract_z
 _atom_site_occupancy
  Rh  Rh0  4  0.00000000  0.26478638  0.25000000  1
  Cl  Cl1  8  0.12499868  0.46281035  0.41977062  1
  Cl  Cl2  8  0.12758108  0.06040880  0.20850666  1
