# generated using pymatgen
data_RhSe2
_symmetry_space_group_name_H-M   Pbca
_cell_length_a   6.12117698
_cell_length_b   12.11428504
_cell_length_c   6.13573636
_cell_angle_alpha   90.00000000
_cell_angle_beta   90.00000000
_cell_angle_gamma   90.00000000
_symmetry_Int_Tables_number   61
_chemical_formula_structural   RhSe2
_chemical_formula_sum   'Rh8 Se16'
_cell_volume   454.98744729
_cell_formula_units_Z   8
loop_
 _symmetry_equiv_pos_site_id
 _symmetry_equiv_pos_as_xyz
  1  'x, y, z'
  2  '-x, -y, -z'
  3  '-x+1/2, -y, z+1/2'
  4  'x+1/2, y, -z+1/2'
  5  'x+1/2, -y+1/2, -z'
  6  '-x+1/2, y+1/2, z'
  7  '-x, y+1/2, -z+1/2'
  8  'x, -y+1/2, z+1/2'
loop_
 _atom_site_type_symbol
 _atom_site_label
 _atom_site_symmetry_multiplicity
 _atom_site_fract_x
 _atom_site_fract_y
 _atom_site_fract_z
 _atom_site_occupancy
  Rh  Rh0  8  0.20972167  0.11652982  0.05156206  1
  Se  Se1  8  0.01575410  0.02365290  0.73477106  1
  Se  Se2  8  0.17077120  0.69776723  0.41549524  1
