# generated using pymatgen
data_RuO2
_symmetry_space_group_name_H-M   P2_1/c
_cell_length_a   4.93474310
_cell_length_b   4.54882382
_cell_length_c   5.56000462
_cell_angle_alpha   90.00000000
_cell_angle_beta   94.69243191
_cell_angle_gamma   90.00000000
_symmetry_Int_Tables_number   14
_chemical_formula_structural   RuO2
_chemical_formula_sum   'Ru4 O8'
_cell_volume   124.38863586
_cell_formula_units_Z   4
loop_
 _symmetry_equiv_pos_site_id
 _symmetry_equiv_pos_as_xyz
  1  'x, y, z'
  2  '-x, -y, -z'
  3  '-x, y+1/2, -z+1/2'
  4  'x, -y+1/2, z+1/2'
loop_
 _atom_site_type_symbol
 _atom_site_label
 _atom_site_symmetry_multiplicity
 _atom_site_fract_x
 _atom_site_fract_y
 _atom_site_fract_z
 _atom_site_occupancy
  Ru  Ru0  4  0.23505301  0.00601684  0.12929587  1
  O  O1  4  0.08379998  0.72687410  0.88147694  1
  O  O2  4  0.41572814  0.21680756  0.86935575  1
