# generated using pymatgen
data_Sc3Se2NO
_symmetry_space_group_name_H-M   C2/m
_cell_length_a   14.74098423
_cell_length_b   3.66996386
_cell_length_c   9.21946250
_cell_angle_alpha   90.00000000
_cell_angle_beta   98.41030336
_cell_angle_gamma   90.00000000
_symmetry_Int_Tables_number   12
_chemical_formula_structural   Sc3Se2NO
_chemical_formula_sum   'Sc12 Se8 N4 O4'
_cell_volume   493.39892028
_cell_formula_units_Z   4
loop_
 _symmetry_equiv_pos_site_id
 _symmetry_equiv_pos_as_xyz
  1  'x, y, z'
  2  '-x, -y, -z'
  3  '-x, y, -z'
  4  'x, -y, z'
  5  'x+1/2, y+1/2, z'
  6  '-x+1/2, -y+1/2, -z'
  7  '-x+1/2, y+1/2, -z'
  8  'x+1/2, -y+1/2, z'
loop_
 _atom_site_type_symbol
 _atom_site_label
 _atom_site_symmetry_multiplicity
 _atom_site_fract_x
 _atom_site_fract_y
 _atom_site_fract_z
 _atom_site_occupancy
  Sc  Sc0  4  0.05057794  0.00000000  0.25249196  1
  Sc  Sc1  4  0.10211256  0.50000000  0.93590577  1
  Sc  Sc2  4  0.18941719  0.00000000  0.67569103  1
  Se  Se3  4  0.13049026  0.50000000  0.46736250  1
  Se  Se4  4  0.21847069  0.00000000  0.14978624  1
  N  N5  4  0.09019713  0.00000000  0.80732543  1
  O  O6  4  0.04125481  0.50000000  0.13430080  1
