# generated using pymatgen
data_ScBr3
_symmetry_space_group_name_H-M   P2_1/c
_cell_length_a   10.02998852
_cell_length_b   6.25842035
_cell_length_c   12.00844630
_cell_angle_alpha   90.00000000
_cell_angle_beta   107.35434042
_cell_angle_gamma   90.00000000
_symmetry_Int_Tables_number   14
_chemical_formula_structural   ScBr3
_chemical_formula_sum   'Sc4 Br12'
_cell_volume   719.47889703
_cell_formula_units_Z   4
loop_
 _symmetry_equiv_pos_site_id
 _symmetry_equiv_pos_as_xyz
  1  'x, y, z'
  2  '-x, -y, -z'
  3  '-x, y+1/2, -z+1/2'
  4  'x, -y+1/2, z+1/2'
loop_
 _atom_site_type_symbol
 _atom_site_label
 _atom_site_symmetry_multiplicity
 _atom_site_fract_x
 _atom_site_fract_y
 _atom_site_fract_z
 _atom_site_occupancy
  Sc  Sc0  4  0.19271634  0.00217822  0.04682194  1
  Br  Br1  4  0.00012997  0.71395388  0.39006059  1
  Br  Br2  4  0.32536911  0.23732177  0.95862720  1
  Br  Br3  4  0.32859804  0.73066815  0.70069803  1
