# generated using pymatgen
data_ScHO2
_symmetry_space_group_name_H-M   Cm
_cell_length_a   6.97189719
_cell_length_b   8.35839686
_cell_length_c   3.56577374
_cell_angle_alpha   90.00000000
_cell_angle_beta   119.60909352
_cell_angle_gamma   90.00000000
_symmetry_Int_Tables_number   8
_chemical_formula_structural   ScHO2
_chemical_formula_sum   'Sc4 H4 O8'
_cell_volume   180.65734948
_cell_formula_units_Z   4
loop_
 _symmetry_equiv_pos_site_id
 _symmetry_equiv_pos_as_xyz
  1  'x, y, z'
  2  'x, -y, z'
  3  'x+1/2, y+1/2, z'
  4  'x+1/2, -y+1/2, z'
loop_
 _atom_site_type_symbol
 _atom_site_label
 _atom_site_symmetry_multiplicity
 _atom_site_fract_x
 _atom_site_fract_y
 _atom_site_fract_z
 _atom_site_occupancy
  Sc  Sc0  4  0.23868690  0.25419256  0.64306701  1
  H  H1  2  0.04581103  0.00000000  0.22094306  1
  H  H2  2  0.44214642  0.50000000  0.63048045  1
  O  O3  4  0.07381619  0.27415921  0.97826933  1
  O  O4  2  0.15980394  0.00000000  0.53361732  1
  O  O5  2  0.31786659  0.50000000  0.69706757  1
