# generated using pymatgen
data_ScI3
_symmetry_space_group_name_H-M   P2_1/m
_cell_length_a   3.81070721
_cell_length_b   13.33609073
_cell_length_c   7.74328010
_cell_angle_alpha   90.00000000
_cell_angle_beta   103.71659354
_cell_angle_gamma   90.00000000
_symmetry_Int_Tables_number   11
_chemical_formula_structural   ScI3
_chemical_formula_sum   'Sc2 I6'
_cell_volume   382.29020900
_cell_formula_units_Z   2
loop_
 _symmetry_equiv_pos_site_id
 _symmetry_equiv_pos_as_xyz
  1  'x, y, z'
  2  '-x, -y, -z'
  3  '-x, y+1/2, -z'
  4  'x, -y+1/2, z'
loop_
 _atom_site_type_symbol
 _atom_site_label
 _atom_site_symmetry_multiplicity
 _atom_site_fract_x
 _atom_site_fract_y
 _atom_site_fract_z
 _atom_site_occupancy
  Sc  Sc0  2  0.29791090  0.25000000  0.56574413  1
  I  I1  4  0.13109441  0.60611620  0.28590216  1
  I  I2  2  0.34579628  0.75000000  0.72887399  1
