# generated using pymatgen
data_ScInO3
_symmetry_space_group_name_H-M   P6_3cm
_cell_length_a   6.12326979
_cell_length_b   6.12326979
_cell_length_c   12.03650277
_cell_angle_alpha   90.00000000
_cell_angle_beta   90.00000000
_cell_angle_gamma   120.00000000
_symmetry_Int_Tables_number   185
_chemical_formula_structural   ScInO3
_chemical_formula_sum   'Sc6 In6 O18'
_cell_volume   390.83886356
_cell_formula_units_Z   6
loop_
 _symmetry_equiv_pos_site_id
 _symmetry_equiv_pos_as_xyz
  1  'x, y, z'
  2  'x-y, x, z+1/2'
  3  '-y, x-y, z'
  4  '-x, -y, z+1/2'
  5  '-x+y, -x, z'
  6  'y, -x+y, z+1/2'
  7  'y, x, z'
  8  'x, x-y, z+1/2'
  9  'x-y, -y, z'
  10  '-y, -x, z+1/2'
  11  '-x, -x+y, z'
  12  '-x+y, y, z+1/2'
loop_
 _atom_site_type_symbol
 _atom_site_label
 _atom_site_symmetry_multiplicity
 _atom_site_fract_x
 _atom_site_fract_y
 _atom_site_fract_z
 _atom_site_occupancy
  Sc  Sc0  4  0.33333333  0.66666667  0.23223407  1
  Sc  Sc1  2  0.00000000  0.00000000  0.25739519  1
  In  In2  6  0.00000000  0.33284252  0.99480015  1
  O  O3  6  0.00000000  0.29309288  0.17201872  1
  O  O4  6  0.00000000  0.38760746  0.82240031  1
  O  O5  4  0.33333333  0.66666667  0.03806962  1
  O  O6  2  0.00000000  0.00000000  0.44562741  1
