# generated using pymatgen
data_Se3N4
_symmetry_space_group_name_H-M   P-3
_cell_length_a   8.18155825
_cell_length_b   8.18155825
_cell_length_c   3.52875028
_cell_angle_alpha   90.00000000
_cell_angle_beta   90.00000000
_cell_angle_gamma   120.00000000
_symmetry_Int_Tables_number   147
_chemical_formula_structural   Se3N4
_chemical_formula_sum   'Se6 N8'
_cell_volume   204.56136417
_cell_formula_units_Z   2
loop_
 _symmetry_equiv_pos_site_id
 _symmetry_equiv_pos_as_xyz
  1  'x, y, z'
  2  '-x, -y, -z'
  3  '-y, x-y, z'
  4  'y, -x+y, -z'
  5  '-x+y, -x, z'
  6  'x-y, x, -z'
loop_
 _atom_site_type_symbol
 _atom_site_label
 _atom_site_symmetry_multiplicity
 _atom_site_fract_x
 _atom_site_fract_y
 _atom_site_fract_z
 _atom_site_occupancy
  Se  Se0  6  0.15164326  0.42350913  0.34654639  1
  N  N1  6  0.02173243  0.70404990  0.28356673  1
  N  N2  2  0.33333333  0.66666667  0.63937580  1
