# generated using pymatgen
data_Se
_symmetry_space_group_name_H-M   P2_1/c
_cell_length_a   7.57771481
_cell_length_b   7.88642368
_cell_length_c   5.72051332
_cell_angle_alpha   90.00000000
_cell_angle_beta   96.50801743
_cell_angle_gamma   90.00000000
_symmetry_Int_Tables_number   14
_chemical_formula_structural   Se
_chemical_formula_sum   Se12
_cell_volume   339.66102457
_cell_formula_units_Z   12
loop_
 _symmetry_equiv_pos_site_id
 _symmetry_equiv_pos_as_xyz
  1  'x, y, z'
  2  '-x, -y, -z'
  3  '-x, y+1/2, -z+1/2'
  4  'x, -y+1/2, z+1/2'
loop_
 _atom_site_type_symbol
 _atom_site_label
 _atom_site_symmetry_multiplicity
 _atom_site_fract_x
 _atom_site_fract_y
 _atom_site_fract_z
 _atom_site_occupancy
  Se  Se0  4  0.12896526  0.09608306  0.77399634  1
  Se  Se1  4  0.23454370  0.00245740  0.43792703  1
  Se  Se2  4  0.40253176  0.74902993  0.52477762  1
