# generated using pymatgen
data_SeO2
_symmetry_space_group_name_H-M   Pbca
_cell_length_a   5.56223047
_cell_length_b   5.87854908
_cell_length_c   10.68682089
_cell_angle_alpha   90.00000000
_cell_angle_beta   90.00000000
_cell_angle_gamma   90.00000000
_symmetry_Int_Tables_number   61
_chemical_formula_structural   SeO2
_chemical_formula_sum   'Se8 O16'
_cell_volume   349.43601100
_cell_formula_units_Z   8
loop_
 _symmetry_equiv_pos_site_id
 _symmetry_equiv_pos_as_xyz
  1  'x, y, z'
  2  '-x, -y, -z'
  3  '-x+1/2, -y, z+1/2'
  4  'x+1/2, y, -z+1/2'
  5  'x+1/2, -y+1/2, -z'
  6  '-x+1/2, y+1/2, z'
  7  '-x, y+1/2, -z+1/2'
  8  'x, -y+1/2, z+1/2'
loop_
 _atom_site_type_symbol
 _atom_site_label
 _atom_site_symmetry_multiplicity
 _atom_site_fract_x
 _atom_site_fract_y
 _atom_site_fract_z
 _atom_site_occupancy
  Se  Se0  8  0.03251763  0.08432685  0.62276796  1
  O  O1  8  0.14524654  0.14121813  0.46412360  1
  O  O2  8  0.24943326  0.57681284  0.18524097  1
