# generated using pymatgen
data_Si3N4
_symmetry_space_group_name_H-M   Pnma
_cell_length_a   9.32431055
_cell_length_b   2.83901554
_cell_length_c   9.15418672
_cell_angle_alpha   90.00000000
_cell_angle_beta   90.00000000
_cell_angle_gamma   90.00000000
_symmetry_Int_Tables_number   62
_chemical_formula_structural   Si3N4
_chemical_formula_sum   'Si12 N16'
_cell_volume   242.32837262
_cell_formula_units_Z   4
loop_
 _symmetry_equiv_pos_site_id
 _symmetry_equiv_pos_as_xyz
  1  'x, y, z'
  2  '-x, -y, -z'
  3  '-x+1/2, -y, z+1/2'
  4  'x+1/2, y, -z+1/2'
  5  'x+1/2, -y+1/2, -z+1/2'
  6  '-x+1/2, y+1/2, z+1/2'
  7  '-x, y+1/2, -z'
  8  'x, -y+1/2, z'
loop_
 _atom_site_type_symbol
 _atom_site_label
 _atom_site_symmetry_multiplicity
 _atom_site_fract_x
 _atom_site_fract_y
 _atom_site_fract_z
 _atom_site_occupancy
  Si  Si0  4  0.05916790  0.75000000  0.62606695  1
  Si  Si1  4  0.06669929  0.75000000  0.09637555  1
  Si  Si2  4  0.22646427  0.75000000  0.35753206  1
  N  N3  4  0.04345697  0.75000000  0.27782606  1
  N  N4  4  0.11327037  0.25000000  0.99658095  1
  N  N5  4  0.11919791  0.25000000  0.49498402  1
  N  N6  4  0.20555952  0.75000000  0.75850508  1
