# generated using pymatgen
data_SiO2
_symmetry_space_group_name_H-M   Pbca
_cell_length_a   4.72496743
_cell_length_b   8.36061494
_cell_length_c   5.03319140
_cell_angle_alpha   90.00000000
_cell_angle_beta   90.00000000
_cell_angle_gamma   90.00000000
_symmetry_Int_Tables_number   61
_chemical_formula_structural   SiO2
_chemical_formula_sum   'Si8 O16'
_cell_volume   198.82934733
_cell_formula_units_Z   8
loop_
 _symmetry_equiv_pos_site_id
 _symmetry_equiv_pos_as_xyz
  1  'x, y, z'
  2  '-x, -y, -z'
  3  '-x+1/2, -y, z+1/2'
  4  'x+1/2, y, -z+1/2'
  5  'x+1/2, -y+1/2, -z'
  6  '-x+1/2, y+1/2, z'
  7  '-x, y+1/2, -z+1/2'
  8  'x, -y+1/2, z+1/2'
loop_
 _atom_site_type_symbol
 _atom_site_label
 _atom_site_symmetry_multiplicity
 _atom_site_fract_x
 _atom_site_fract_y
 _atom_site_fract_z
 _atom_site_occupancy
  Si  Si0  8  0.12797699  0.12776486  0.88859118  1
  O  O1  8  0.04247460  0.73164558  0.88877235  1
  O  O2  8  0.17869052  0.51033583  0.65129407  1
