# generated using pymatgen
data_SiSe2
_symmetry_space_group_name_H-M   Pbca
_cell_length_a   6.39842421
_cell_length_b   7.10454237
_cell_length_c   15.73884085
_cell_angle_alpha   90.00000000
_cell_angle_beta   90.00000000
_cell_angle_gamma   90.00000000
_symmetry_Int_Tables_number   61
_chemical_formula_structural   SiSe2
_chemical_formula_sum   'Si8 Se16'
_cell_volume   715.45427424
_cell_formula_units_Z   8
loop_
 _symmetry_equiv_pos_site_id
 _symmetry_equiv_pos_as_xyz
  1  'x, y, z'
  2  '-x, -y, -z'
  3  '-x+1/2, -y, z+1/2'
  4  'x+1/2, y, -z+1/2'
  5  'x+1/2, -y+1/2, -z'
  6  '-x+1/2, y+1/2, z'
  7  '-x, y+1/2, -z+1/2'
  8  'x, -y+1/2, z+1/2'
loop_
 _atom_site_type_symbol
 _atom_site_label
 _atom_site_symmetry_multiplicity
 _atom_site_fract_x
 _atom_site_fract_y
 _atom_site_fract_z
 _atom_site_occupancy
  Si  Si0  8  0.19343824  0.13323561  0.17762708  1
  Se  Se1  8  0.16825616  0.66397127  0.31014503  1
  Se  Se2  8  0.24356334  0.61841183  0.58527999  1
