# generated using pymatgen
data_SiSe2
_symmetry_space_group_name_H-M   C2
_cell_length_a   10.92587831
_cell_length_b   6.17459784
_cell_length_c   11.36921961
_cell_angle_alpha   90.00000000
_cell_angle_beta   112.38835148
_cell_angle_gamma   90.00000000
_symmetry_Int_Tables_number   5
_chemical_formula_structural   SiSe2
_chemical_formula_sum   'Si8 Se16'
_cell_volume   709.18674989
_cell_formula_units_Z   8
loop_
 _symmetry_equiv_pos_site_id
 _symmetry_equiv_pos_as_xyz
  1  'x, y, z'
  2  '-x, y, -z'
  3  'x+1/2, y+1/2, z'
  4  '-x+1/2, y+1/2, -z'
loop_
 _atom_site_type_symbol
 _atom_site_label
 _atom_site_symmetry_multiplicity
 _atom_site_fract_x
 _atom_site_fract_y
 _atom_site_fract_z
 _atom_site_occupancy
  Si  Si0  4  0.18651798  0.89484061  0.05517944  1
  Si  Si1  4  0.18776655  0.14199919  0.56784170  1
  Se  Se2  4  0.13514735  0.42112448  0.42488263  1
  Se  Se3  4  0.14161313  0.64007504  0.89100828  1
  Se  Se4  4  0.22843025  0.63342426  0.21030956  1
  Se  Se5  2  0.00000000  0.11007973  0.00000000  1
  Se  Se6  2  0.00000000  0.92568520  0.50000000  1
