# generated using pymatgen
data_Sm3Se2NO
_symmetry_space_group_name_H-M   C2/m
_cell_length_a   15.88654629
_cell_length_b   4.01173937
_cell_length_c   9.95214741
_cell_angle_alpha   90.00000000
_cell_angle_beta   97.57344743
_cell_angle_gamma   90.00000000
_symmetry_Int_Tables_number   12
_chemical_formula_structural   Sm3Se2NO
_chemical_formula_sum   'Sm12 Se8 N4 O4'
_cell_volume   628.74408478
_cell_formula_units_Z   4
loop_
 _symmetry_equiv_pos_site_id
 _symmetry_equiv_pos_as_xyz
  1  'x, y, z'
  2  '-x, -y, -z'
  3  '-x, y, -z'
  4  'x, -y, z'
  5  'x+1/2, y+1/2, z'
  6  '-x+1/2, -y+1/2, -z'
  7  '-x+1/2, y+1/2, -z'
  8  'x+1/2, -y+1/2, z'
loop_
 _atom_site_type_symbol
 _atom_site_label
 _atom_site_symmetry_multiplicity
 _atom_site_fract_x
 _atom_site_fract_y
 _atom_site_fract_z
 _atom_site_occupancy
  Sm  Sm0  4  0.04475551  0.00000000  0.26172922  1
  Sm  Sm1  4  0.10891658  0.50000000  0.94602019  1
  Sm  Sm2  4  0.19714128  0.00000000  0.67442126  1
  Se  Se3  4  0.12856064  0.50000000  0.47402883  1
  Se  Se4  4  0.21227734  0.00000000  0.15048629  1
  N  N5  4  0.09769380  0.00000000  0.81210167  1
  O  O6  4  0.03528153  0.50000000  0.13985332  1
