# generated using pymatgen
data_Sn3N4
_symmetry_space_group_name_H-M   Pnma
_cell_length_a   10.38562631
_cell_length_b   3.29165237
_cell_length_c   10.72142873
_cell_angle_alpha   90.00000000
_cell_angle_beta   90.00000000
_cell_angle_gamma   90.00000000
_symmetry_Int_Tables_number   62
_chemical_formula_structural   Sn3N4
_chemical_formula_sum   'Sn12 N16'
_cell_volume   366.52138440
_cell_formula_units_Z   4
loop_
 _symmetry_equiv_pos_site_id
 _symmetry_equiv_pos_as_xyz
  1  'x, y, z'
  2  '-x, -y, -z'
  3  '-x+1/2, -y, z+1/2'
  4  'x+1/2, y, -z+1/2'
  5  'x+1/2, -y+1/2, -z+1/2'
  6  '-x+1/2, y+1/2, z+1/2'
  7  '-x, y+1/2, -z'
  8  'x, -y+1/2, z'
loop_
 _atom_site_type_symbol
 _atom_site_label
 _atom_site_symmetry_multiplicity
 _atom_site_fract_x
 _atom_site_fract_y
 _atom_site_fract_z
 _atom_site_occupancy
  Sn  Sn0  4  0.06466466  0.75000000  0.12668689  1
  Sn  Sn1  4  0.09895159  0.75000000  0.59778803  1
  Sn  Sn2  4  0.22201645  0.75000000  0.86035354  1
  N  N3  4  0.03041974  0.75000000  0.77844384  1
  N  N4  4  0.10893943  0.25000000  0.47661305  1
  N  N5  4  0.12506832  0.25000000  0.98951842  1
  N  N6  4  0.24006474  0.75000000  0.22981434  1
