# generated using pymatgen
data_SrV2O4
_symmetry_space_group_name_H-M   Pnma
_cell_length_a   9.54921242
_cell_length_b   3.16954322
_cell_length_c   10.96263223
_cell_angle_alpha   90.00000000
_cell_angle_beta   90.00000000
_cell_angle_gamma   90.00000000
_symmetry_Int_Tables_number   62
_chemical_formula_structural   SrV2O4
_chemical_formula_sum   'Sr4 V8 O16'
_cell_volume   331.80205941
_cell_formula_units_Z   4
loop_
 _symmetry_equiv_pos_site_id
 _symmetry_equiv_pos_as_xyz
  1  'x, y, z'
  2  '-x, -y, -z'
  3  '-x+1/2, -y, z+1/2'
  4  'x+1/2, y, -z+1/2'
  5  'x+1/2, -y+1/2, -z+1/2'
  6  '-x+1/2, y+1/2, z+1/2'
  7  '-x, y+1/2, -z'
  8  'x, -y+1/2, z'
loop_
 _atom_site_type_symbol
 _atom_site_label
 _atom_site_symmetry_multiplicity
 _atom_site_fract_x
 _atom_site_fract_y
 _atom_site_fract_z
 _atom_site_occupancy
  Sr  Sr0  4  0.24626927  0.75000000  0.34894005  1
  V  V1  4  0.06918948  0.75000000  0.11028168  1
  V  V2  4  0.07725011  0.75000000  0.60611298  1
  O  O3  4  0.02044917  0.25000000  0.71911322  1
  O  O4  4  0.07207239  0.75000000  0.92769344  1
  O  O5  4  0.11117476  0.25000000  0.48052472  1
  O  O6  4  0.21039197  0.25000000  0.15224310  1
