# generated using pymatgen
data_TaVO4
_symmetry_space_group_name_H-M   P2/c
_cell_length_a   4.70306578
_cell_length_b   5.70130133
_cell_length_c   5.08025461
_cell_angle_alpha   90.00000000
_cell_angle_beta   90.43556118
_cell_angle_gamma   90.00000000
_symmetry_Int_Tables_number   13
_chemical_formula_structural   TaVO4
_chemical_formula_sum   'Ta2 V2 O8'
_cell_volume   136.21595465
_cell_formula_units_Z   2
loop_
 _symmetry_equiv_pos_site_id
 _symmetry_equiv_pos_as_xyz
  1  'x, y, z'
  2  '-x, -y, -z'
  3  '-x, y, -z+1/2'
  4  'x, -y, z+1/2'
loop_
 _atom_site_type_symbol
 _atom_site_label
 _atom_site_symmetry_multiplicity
 _atom_site_fract_x
 _atom_site_fract_y
 _atom_site_fract_z
 _atom_site_occupancy
  Ta  Ta0  2  0.00000000  0.32686224  0.25000000  1
  V  V1  2  0.50000000  0.15732399  0.75000000  1
  O  O2  4  0.22347526  0.38915945  0.92548968  1
  O  O3  4  0.26570957  0.11519584  0.41610599  1
