# generated using pymatgen
data_Tb2SnSe5
_symmetry_space_group_name_H-M   Pbam
_cell_length_a   8.14014670
_cell_length_b   12.05770615
_cell_length_c   3.99864377
_cell_angle_alpha   90.00000000
_cell_angle_beta   90.00000000
_cell_angle_gamma   90.00000000
_symmetry_Int_Tables_number   55
_chemical_formula_structural   Tb2SnSe5
_chemical_formula_sum   'Tb4 Sn2 Se10'
_cell_volume   392.47287170
_cell_formula_units_Z   2
loop_
 _symmetry_equiv_pos_site_id
 _symmetry_equiv_pos_as_xyz
  1  'x, y, z'
  2  '-x, -y, -z'
  3  '-x, -y, z'
  4  'x, y, -z'
  5  'x+1/2, -y+1/2, -z'
  6  '-x+1/2, y+1/2, z'
  7  '-x+1/2, y+1/2, -z'
  8  'x+1/2, -y+1/2, z'
loop_
 _atom_site_type_symbol
 _atom_site_label
 _atom_site_symmetry_multiplicity
 _atom_site_fract_x
 _atom_site_fract_y
 _atom_site_fract_z
 _atom_site_occupancy
  Tb  Tb0  4  0.02407187  0.67320478  0.00000000  1
  Sn  Sn1  2  0.00000000  0.00000000  0.50000000  1
  Se  Se2  4  0.16925660  0.89668018  0.00000000  1
  Se  Se3  4  0.18289934  0.19531910  0.50000000  1
  Se  Se4  2  0.00000000  0.50000000  0.50000000  1
