# generated using pymatgen
data_Ti2S3
_symmetry_space_group_name_H-M   C2/m
_cell_length_a   5.94261313
_cell_length_b   10.28538386
_cell_length_c   6.05860854
_cell_angle_alpha   90.00000000
_cell_angle_beta   109.24165199
_cell_angle_gamma   90.00000000
_symmetry_Int_Tables_number   12
_chemical_formula_structural   Ti2S3
_chemical_formula_sum   'Ti8 S12'
_cell_volume   349.62774881
_cell_formula_units_Z   4
loop_
 _symmetry_equiv_pos_site_id
 _symmetry_equiv_pos_as_xyz
  1  'x, y, z'
  2  '-x, -y, -z'
  3  '-x, y, -z'
  4  'x, -y, z'
  5  'x+1/2, y+1/2, z'
  6  '-x+1/2, -y+1/2, -z'
  7  '-x+1/2, y+1/2, -z'
  8  'x+1/2, -y+1/2, z'
loop_
 _atom_site_type_symbol
 _atom_site_label
 _atom_site_symmetry_multiplicity
 _atom_site_fract_x
 _atom_site_fract_y
 _atom_site_fract_z
 _atom_site_occupancy
  Ti  Ti0  4  0.00000000  0.32834092  0.50000000  1
  Ti  Ti1  2  0.00000000  0.00000000  0.50000000  1
  Ti  Ti2  2  0.00000000  0.50000000  0.00000000  1
  S  S3  8  0.24933492  0.33172676  0.24310333  1
  S  S4  4  0.24827482  0.00000000  0.25139388  1
