# generated using pymatgen
data_Ti3N4
_symmetry_space_group_name_H-M   Pnma
_cell_length_a   9.99657727
_cell_length_b   6.01823238
_cell_length_c   5.14452254
_cell_angle_alpha   90.00000000
_cell_angle_beta   90.00000000
_cell_angle_gamma   90.00000000
_symmetry_Int_Tables_number   62
_chemical_formula_structural   Ti3N4
_chemical_formula_sum   'Ti12 N16'
_cell_volume   309.50335039
_cell_formula_units_Z   4
loop_
 _symmetry_equiv_pos_site_id
 _symmetry_equiv_pos_as_xyz
  1  'x, y, z'
  2  '-x, -y, -z'
  3  '-x+1/2, -y, z+1/2'
  4  'x+1/2, y, -z+1/2'
  5  'x+1/2, -y+1/2, -z+1/2'
  6  '-x+1/2, y+1/2, z+1/2'
  7  '-x, y+1/2, -z'
  8  'x, -y+1/2, z'
loop_
 _atom_site_type_symbol
 _atom_site_label
 _atom_site_symmetry_multiplicity
 _atom_site_fract_x
 _atom_site_fract_y
 _atom_site_fract_z
 _atom_site_occupancy
  Ti  Ti0  4  0.00000000  0.00000000  0.50000000  1
  Ti  Ti1  4  0.11129548  0.75000000  0.06371856  1
  Ti  Ti2  4  0.22071439  0.25000000  0.04316527  1
  N  N3  8  0.17246094  0.50353189  0.26908296  1
  N  N4  4  0.06086544  0.25000000  0.76953773  1
  N  N5  4  0.08929146  0.75000000  0.69116317  1
