# generated using pymatgen
data_TiBr3
_symmetry_space_group_name_H-M   P2_1/c
_cell_length_a   9.01212692
_cell_length_b   6.43817879
_cell_length_c   12.60548797
_cell_angle_alpha   90.00000000
_cell_angle_beta   110.38402011
_cell_angle_gamma   90.00000000
_symmetry_Int_Tables_number   14
_chemical_formula_structural   TiBr3
_chemical_formula_sum   'Ti4 Br12'
_cell_volume   685.59129344
_cell_formula_units_Z   4
loop_
 _symmetry_equiv_pos_site_id
 _symmetry_equiv_pos_as_xyz
  1  'x, y, z'
  2  '-x, -y, -z'
  3  '-x, y+1/2, -z+1/2'
  4  'x, -y+1/2, z+1/2'
loop_
 _atom_site_type_symbol
 _atom_site_label
 _atom_site_symmetry_multiplicity
 _atom_site_fract_x
 _atom_site_fract_y
 _atom_site_fract_z
 _atom_site_occupancy
  Ti  Ti0  4  0.33096702  0.50309200  0.95855467  1
  Br  Br1  4  0.18624496  0.21633283  0.30832736  1
  Br  Br2  4  0.19273794  0.72791046  0.03928851  1
  Br  Br3  4  0.49869014  0.22294334  0.61236522  1
