# generated using pymatgen
data_TiSe2
_symmetry_space_group_name_H-M   P2_1/c
_cell_length_a   6.24435621
_cell_length_b   6.32485512
_cell_length_c   6.53533343
_cell_angle_alpha   90.00000000
_cell_angle_beta   99.39722454
_cell_angle_gamma   90.00000000
_symmetry_Int_Tables_number   14
_chemical_formula_structural   TiSe2
_chemical_formula_sum   'Ti4 Se8'
_cell_volume   254.64686833
_cell_formula_units_Z   4
loop_
 _symmetry_equiv_pos_site_id
 _symmetry_equiv_pos_as_xyz
  1  'x, y, z'
  2  '-x, -y, -z'
  3  '-x, y+1/2, -z+1/2'
  4  'x, -y+1/2, z+1/2'
loop_
 _atom_site_type_symbol
 _atom_site_label
 _atom_site_symmetry_multiplicity
 _atom_site_fract_x
 _atom_site_fract_y
 _atom_site_fract_z
 _atom_site_occupancy
  Ti  Ti0  4  0.29043993  0.56463801  0.20866748  1
  Se  Se1  4  0.07413964  0.65783194  0.84129207  1
  Se  Se2  4  0.42712155  0.23546567  0.98808102  1
