# generated using pymatgen
data_TiSe2
_symmetry_space_group_name_H-M   Pbca
_cell_length_a   6.38804713
_cell_length_b   11.75328968
_cell_length_c   7.33142122
_cell_angle_alpha   90.00000000
_cell_angle_beta   90.00000000
_cell_angle_gamma   90.00000000
_symmetry_Int_Tables_number   61
_chemical_formula_structural   TiSe2
_chemical_formula_sum   'Ti8 Se16'
_cell_volume   550.44727233
_cell_formula_units_Z   8
loop_
 _symmetry_equiv_pos_site_id
 _symmetry_equiv_pos_as_xyz
  1  'x, y, z'
  2  '-x, -y, -z'
  3  '-x+1/2, -y, z+1/2'
  4  'x+1/2, y, -z+1/2'
  5  'x+1/2, -y+1/2, -z'
  6  '-x+1/2, y+1/2, z'
  7  '-x, y+1/2, -z+1/2'
  8  'x, -y+1/2, z+1/2'
loop_
 _atom_site_type_symbol
 _atom_site_label
 _atom_site_symmetry_multiplicity
 _atom_site_fract_x
 _atom_site_fract_y
 _atom_site_fract_z
 _atom_site_occupancy
  Ti  Ti0  8  0.10045678  0.12636605  0.34616841  1
  Se  Se1  8  0.07985238  0.74854813  0.38148757  1
  Se  Se2  8  0.22025493  0.50035451  0.13230689  1
