# generated using pymatgen
data_TiV2O6
_symmetry_space_group_name_H-M   C2/m
_cell_length_a   12.88417842
_cell_length_b   3.03845373
_cell_length_c   6.04472349
_cell_angle_alpha   90.00000000
_cell_angle_beta   104.97676970
_cell_angle_gamma   90.00000000
_symmetry_Int_Tables_number   12
_chemical_formula_structural   TiV2O6
_chemical_formula_sum   'Ti2 V4 O12'
_cell_volume   228.60025906
_cell_formula_units_Z   2
loop_
 _symmetry_equiv_pos_site_id
 _symmetry_equiv_pos_as_xyz
  1  'x, y, z'
  2  '-x, -y, -z'
  3  '-x, y, -z'
  4  'x, -y, z'
  5  'x+1/2, y+1/2, z'
  6  '-x+1/2, -y+1/2, -z'
  7  '-x+1/2, y+1/2, -z'
  8  'x+1/2, -y+1/2, z'
loop_
 _atom_site_type_symbol
 _atom_site_label
 _atom_site_symmetry_multiplicity
 _atom_site_fract_x
 _atom_site_fract_y
 _atom_site_fract_z
 _atom_site_occupancy
  Ti  Ti0  2  0.00000000  0.00000000  0.00000000  1
  V  V1  4  0.17430146  0.50000000  0.32135618  1
  O  O2  4  0.01747491  0.50000000  0.22035160  1
  O  O3  4  0.15770989  0.00000000  0.10563315  1
  O  O4  4  0.17905845  0.00000000  0.54827247  1
