# generated using pymatgen
data_TiZn2O4
_symmetry_space_group_name_H-M   Pnma
_cell_length_a   11.10078251
_cell_length_b   6.71969421
_cell_length_c   5.34018670
_cell_angle_alpha   90.00000000
_cell_angle_beta   90.00000000
_cell_angle_gamma   90.00000000
_symmetry_Int_Tables_number   62
_chemical_formula_structural   TiZn2O4
_chemical_formula_sum   'Ti4 Zn8 O16'
_cell_volume   398.34516022
_cell_formula_units_Z   4
loop_
 _symmetry_equiv_pos_site_id
 _symmetry_equiv_pos_as_xyz
  1  'x, y, z'
  2  '-x, -y, -z'
  3  '-x+1/2, -y, z+1/2'
  4  'x+1/2, y, -z+1/2'
  5  'x+1/2, -y+1/2, -z+1/2'
  6  '-x+1/2, y+1/2, z+1/2'
  7  '-x, y+1/2, -z'
  8  'x, -y+1/2, z'
loop_
 _atom_site_type_symbol
 _atom_site_label
 _atom_site_symmetry_multiplicity
 _atom_site_fract_x
 _atom_site_fract_y
 _atom_site_fract_z
 _atom_site_occupancy
  Ti  Ti0  4  0.08858067  0.25000000  0.67394888  1
  Zn  Zn1  8  0.16302696  0.50217648  0.17021995  1
  O  O2  8  0.16926269  0.03607845  0.80232721  1
  O  O3  4  0.07159432  0.75000000  0.23477321  1
  O  O4  4  0.11106733  0.25000000  0.33193533  1
