# generated using pymatgen
data_Tl2S
_symmetry_space_group_name_H-M   P2_12_12_1
_cell_length_a   6.13790797
_cell_length_b   7.73177210
_cell_length_c   8.39579495
_cell_angle_alpha   90.00000000
_cell_angle_beta   90.00000000
_cell_angle_gamma   90.00000000
_symmetry_Int_Tables_number   19
_chemical_formula_structural   Tl2S
_chemical_formula_sum   'Tl8 S4'
_cell_volume   398.43844896
_cell_formula_units_Z   4
loop_
 _symmetry_equiv_pos_site_id
 _symmetry_equiv_pos_as_xyz
  1  'x, y, z'
  2  '-x+1/2, -y, z+1/2'
  3  'x+1/2, -y+1/2, -z'
  4  '-x, y+1/2, -z+1/2'
loop_
 _atom_site_type_symbol
 _atom_site_label
 _atom_site_symmetry_multiplicity
 _atom_site_fract_x
 _atom_site_fract_y
 _atom_site_fract_z
 _atom_site_occupancy
  Tl  Tl0  4  0.17717892  0.18356639  0.67454940  1
  Tl  Tl1  4  0.21758970  0.32654802  0.08981179  1
  S  S2  4  0.07384948  0.10651440  0.34007325  1
