# generated using pymatgen
data_Tl3AsO4
_symmetry_space_group_name_H-M   Pmn2_1
_cell_length_a   7.88131214
_cell_length_b   6.56066558
_cell_length_c   5.68466184
_cell_angle_alpha   90.00000000
_cell_angle_beta   90.00000000
_cell_angle_gamma   90.00000000
_symmetry_Int_Tables_number   31
_chemical_formula_structural   Tl3AsO4
_chemical_formula_sum   'Tl6 As2 O8'
_cell_volume   293.93483881
_cell_formula_units_Z   2
loop_
 _symmetry_equiv_pos_site_id
 _symmetry_equiv_pos_as_xyz
  1  'x, y, z'
  2  '-x+1/2, -y, z+1/2'
  3  '-x, y, z'
  4  'x+1/2, -y, z+1/2'
loop_
 _atom_site_type_symbol
 _atom_site_label
 _atom_site_symmetry_multiplicity
 _atom_site_fract_x
 _atom_site_fract_y
 _atom_site_fract_z
 _atom_site_occupancy
  Tl  Tl0  4  0.23640793  0.33169368  0.51647789  1
  Tl  Tl1  2  0.00000000  0.75303337  0.52577626  1
  As  As2  2  0.00000000  0.12312076  0.99023860  1
  O  O3  4  0.17739780  0.25193300  0.07395597  1
  O  O4  2  0.00000000  0.09742276  0.68607082  1
  O  O5  2  0.00000000  0.88048342  0.11024502  1
