# generated using pymatgen
data_TlSbS2
_symmetry_space_group_name_H-M   C2/c
_cell_length_a   8.98601998
_cell_length_b   9.33522269
_cell_length_c   6.98641968
_cell_angle_alpha   90.00000000
_cell_angle_beta   121.96582280
_cell_angle_gamma   90.00000000
_symmetry_Int_Tables_number   15
_chemical_formula_structural   TlSbS2
_chemical_formula_sum   'Tl4 Sb4 S8'
_cell_volume   497.19755790
_cell_formula_units_Z   4
loop_
 _symmetry_equiv_pos_site_id
 _symmetry_equiv_pos_as_xyz
  1  'x, y, z'
  2  '-x, -y, -z'
  3  '-x, y, -z+1/2'
  4  'x, -y, z+1/2'
  5  'x+1/2, y+1/2, z'
  6  '-x+1/2, -y+1/2, -z'
  7  '-x+1/2, y+1/2, -z+1/2'
  8  'x+1/2, -y+1/2, z+1/2'
loop_
 _atom_site_type_symbol
 _atom_site_label
 _atom_site_symmetry_multiplicity
 _atom_site_fract_x
 _atom_site_fract_y
 _atom_site_fract_z
 _atom_site_occupancy
  Tl  Tl0  4  0.00000000  0.13670572  0.75000000  1
  Sb  Sb1  4  0.00000000  0.41157009  0.25000000  1
  S  S2  8  0.20220230  0.42472564  0.71950586  1
