# generated using pymatgen
data_TlSb2PO8
_symmetry_space_group_name_H-M   C2/c
_cell_length_a   12.71100872
_cell_length_b   7.23320320
_cell_length_c   15.28407129
_cell_angle_alpha   90.00000000
_cell_angle_beta   96.66057224
_cell_angle_gamma   90.00000000
_symmetry_Int_Tables_number   15
_chemical_formula_structural   TlSb2PO8
_chemical_formula_sum   'Tl8 Sb16 P8 O64'
_cell_volume   1395.75315135
_cell_formula_units_Z   8
loop_
 _symmetry_equiv_pos_site_id
 _symmetry_equiv_pos_as_xyz
  1  'x, y, z'
  2  '-x, -y, -z'
  3  '-x, y, -z+1/2'
  4  'x, -y, z+1/2'
  5  'x+1/2, y+1/2, z'
  6  '-x+1/2, -y+1/2, -z'
  7  '-x+1/2, y+1/2, -z+1/2'
  8  'x+1/2, -y+1/2, z+1/2'
loop_
 _atom_site_type_symbol
 _atom_site_label
 _atom_site_symmetry_multiplicity
 _atom_site_fract_x
 _atom_site_fract_y
 _atom_site_fract_z
 _atom_site_occupancy
  Tl  Tl0  8  0.04243090  0.11340852  0.88852635  1
  Sb  Sb1  8  0.17695960  0.37027835  0.43747683  1
  Sb  Sb2  8  0.24900680  0.36982869  0.75387025  1
  P  P3  8  0.09933885  0.39116615  0.10747292  1
  O  O4  8  0.01618140  0.37402238  0.43389944  1
  O  O5  8  0.11278141  0.44690962  0.67483081  1
  O  O6  8  0.12734787  0.20349909  0.15377929  1
  O  O7  8  0.16255591  0.18460779  0.34093328  1
  O  O8  8  0.16805094  0.16410258  0.52569842  1
  O  O9  8  0.17015217  0.41788667  0.85650991  1
  O  O10  8  0.17053633  0.42228486  0.03273386  1
  O  O11  8  0.18475194  0.11909648  0.74852707  1
