# generated using pymatgen
data_V2S5
_symmetry_space_group_name_H-M   Pmmn
_cell_length_a   4.32382101
_cell_length_b   13.90506165
_cell_length_c   6.76520928
_cell_angle_alpha   90.00000000
_cell_angle_beta   90.00000000
_cell_angle_gamma   90.00000000
_symmetry_Int_Tables_number   59
_chemical_formula_structural   V2S5
_chemical_formula_sum   'V4 S10'
_cell_volume   406.74466190
_cell_formula_units_Z   2
loop_
 _symmetry_equiv_pos_site_id
 _symmetry_equiv_pos_as_xyz
  1  'x, y, z'
  2  '-x, -y, z'
  3  'x+1/2, -y+1/2, -z'
  4  '-x+1/2, y+1/2, -z'
  5  '-x+1/2, -y+1/2, -z'
  6  'x+1/2, y+1/2, -z'
  7  '-x, y, z'
  8  'x, -y, z'
loop_
 _atom_site_type_symbol
 _atom_site_label
 _atom_site_symmetry_multiplicity
 _atom_site_fract_x
 _atom_site_fract_y
 _atom_site_fract_z
 _atom_site_occupancy
  V  V0  4  0.00000000  0.14816682  0.90168644  1
  S  S1  4  0.00000000  0.14001119  0.60343948  1
  S  S2  4  0.00000000  0.31719403  0.98400112  1
  S  S3  2  0.00000000  0.00000000  0.03341265  1
