# generated using pymatgen
data_VBr3
_symmetry_space_group_name_H-M   P2_1/c
_cell_length_a   7.93680567
_cell_length_b   7.49824629
_cell_length_c   11.04265555
_cell_angle_alpha   90.00000000
_cell_angle_beta   95.05686335
_cell_angle_gamma   90.00000000
_symmetry_Int_Tables_number   14
_chemical_formula_structural   VBr3
_chemical_formula_sum   'V4 Br12'
_cell_volume   654.61397912
_cell_formula_units_Z   4
loop_
 _symmetry_equiv_pos_site_id
 _symmetry_equiv_pos_as_xyz
  1  'x, y, z'
  2  '-x, -y, -z'
  3  '-x, y+1/2, -z+1/2'
  4  'x, -y+1/2, z+1/2'
loop_
 _atom_site_type_symbol
 _atom_site_label
 _atom_site_symmetry_multiplicity
 _atom_site_fract_x
 _atom_site_fract_y
 _atom_site_fract_z
 _atom_site_occupancy
  V  V0  4  0.19618539  0.08842261  0.04580944  1
  Br  Br1  4  0.07548870  0.56486537  0.35947710  1
  Br  Br2  4  0.25795649  0.11279391  0.51752573  1
  Br  Br3  4  0.40313367  0.56758874  0.66521462  1
