# generated using pymatgen
data_VI3
_symmetry_space_group_name_H-M   P2_1/m
_cell_length_a   3.66710089
_cell_length_b   13.22194020
_cell_length_c   7.39737224
_cell_angle_alpha   90.00000000
_cell_angle_beta   103.81011265
_cell_angle_gamma   90.00000000
_symmetry_Int_Tables_number   11
_chemical_formula_structural   VI3
_chemical_formula_sum   'V2 I6'
_cell_volume   348.30200115
_cell_formula_units_Z   2
loop_
 _symmetry_equiv_pos_site_id
 _symmetry_equiv_pos_as_xyz
  1  'x, y, z'
  2  '-x, -y, -z'
  3  '-x, y+1/2, -z'
  4  'x, -y+1/2, z'
loop_
 _atom_site_type_symbol
 _atom_site_label
 _atom_site_symmetry_multiplicity
 _atom_site_fract_x
 _atom_site_fract_y
 _atom_site_fract_z
 _atom_site_occupancy
  V  V0  2  0.20235133  0.75000000  0.43444896  1
  I  I1  4  0.36887119  0.11291097  0.71411313  1
  I  I2  2  0.15640463  0.25000000  0.27411437  1
