# generated using pymatgen
data_VO2
_symmetry_space_group_name_H-M   Pbca
_cell_length_a   5.21651721
_cell_length_b   9.18280302
_cell_length_c   5.40726476
_cell_angle_alpha   90.00000000
_cell_angle_beta   90.00000000
_cell_angle_gamma   90.00000000
_symmetry_Int_Tables_number   61
_chemical_formula_structural   VO2
_chemical_formula_sum   'V8 O16'
_cell_volume   259.02014829
_cell_formula_units_Z   8
loop_
 _symmetry_equiv_pos_site_id
 _symmetry_equiv_pos_as_xyz
  1  'x, y, z'
  2  '-x, -y, -z'
  3  '-x+1/2, -y, z+1/2'
  4  'x+1/2, y, -z+1/2'
  5  'x+1/2, -y+1/2, -z'
  6  '-x+1/2, y+1/2, z'
  7  '-x, y+1/2, -z+1/2'
  8  'x, -y+1/2, z+1/2'
loop_
 _atom_site_type_symbol
 _atom_site_label
 _atom_site_symmetry_multiplicity
 _atom_site_fract_x
 _atom_site_fract_y
 _atom_site_fract_z
 _atom_site_occupancy
  V  V0  8  0.14372951  0.62855043  0.09796427  1
  O  O1  8  0.03072463  0.22682100  0.11957959  1
  O  O2  8  0.19032309  0.00768841  0.36249378  1
