# generated using pymatgen
data_VSe2
_symmetry_space_group_name_H-M   P2_1/c
_cell_length_a   6.16020296
_cell_length_b   6.22250687
_cell_length_c   6.38680125
_cell_angle_alpha   90.00000000
_cell_angle_beta   99.63648566
_cell_angle_gamma   90.00000000
_symmetry_Int_Tables_number   14
_chemical_formula_structural   VSe2
_chemical_formula_sum   'V4 Se8'
_cell_volume   241.36378629
_cell_formula_units_Z   4
loop_
 _symmetry_equiv_pos_site_id
 _symmetry_equiv_pos_as_xyz
  1  'x, y, z'
  2  '-x, -y, -z'
  3  '-x, y+1/2, -z+1/2'
  4  'x, -y+1/2, z+1/2'
loop_
 _atom_site_type_symbol
 _atom_site_label
 _atom_site_symmetry_multiplicity
 _atom_site_fract_x
 _atom_site_fract_y
 _atom_site_fract_z
 _atom_site_occupancy
  V  V0  4  0.28165172  0.55508928  0.69975473  1
  Se  Se1  4  0.07830286  0.65088201  0.33862744  1
  Se  Se2  4  0.44039184  0.23419432  0.49088029  1
