# generated using pymatgen
data_Y3Se2NO
_symmetry_space_group_name_H-M   C2/m
_cell_length_a   15.54108027
_cell_length_b   3.90929192
_cell_length_c   9.72621763
_cell_angle_alpha   90.00000000
_cell_angle_beta   97.82031222
_cell_angle_gamma   90.00000000
_symmetry_Int_Tables_number   12
_chemical_formula_structural   Y3Se2NO
_chemical_formula_sum   'Y12 Se8 N4 O4'
_cell_volume   585.41696587
_cell_formula_units_Z   4
loop_
 _symmetry_equiv_pos_site_id
 _symmetry_equiv_pos_as_xyz
  1  'x, y, z'
  2  '-x, -y, -z'
  3  '-x, y, -z'
  4  'x, -y, z'
  5  'x+1/2, y+1/2, z'
  6  '-x+1/2, -y+1/2, -z'
  7  '-x+1/2, y+1/2, -z'
  8  'x+1/2, -y+1/2, z'
loop_
 _atom_site_type_symbol
 _atom_site_label
 _atom_site_symmetry_multiplicity
 _atom_site_fract_x
 _atom_site_fract_y
 _atom_site_fract_z
 _atom_site_occupancy
  Y  Y0  4  0.04619215  0.00000000  0.25829423  1
  Y  Y1  4  0.10735263  0.50000000  0.94353523  1
  Y  Y2  4  0.19514259  0.00000000  0.67491231  1
  Se  Se3  4  0.12938012  0.50000000  0.47129364  1
  Se  Se4  4  0.21360333  0.00000000  0.14995636  1
  N  N5  4  0.09593938  0.00000000  0.81079139  1
  O  O6  4  0.03700479  0.50000000  0.13821996  1
