# generated using pymatgen
data_YAsO3
_symmetry_space_group_name_H-M   P2_1/c
_cell_length_a   4.45528552
_cell_length_b   11.94948501
_cell_length_c   6.24916329
_cell_angle_alpha   90.00000000
_cell_angle_beta   114.89012350
_cell_angle_gamma   90.00000000
_symmetry_Int_Tables_number   14
_chemical_formula_structural   YAsO3
_chemical_formula_sum   'Y4 As4 O12'
_cell_volume   301.79337869
_cell_formula_units_Z   4
loop_
 _symmetry_equiv_pos_site_id
 _symmetry_equiv_pos_as_xyz
  1  'x, y, z'
  2  '-x, -y, -z'
  3  '-x, y+1/2, -z+1/2'
  4  'x, -y+1/2, z+1/2'
loop_
 _atom_site_type_symbol
 _atom_site_label
 _atom_site_symmetry_multiplicity
 _atom_site_fract_x
 _atom_site_fract_y
 _atom_site_fract_z
 _atom_site_occupancy
  Y  Y0  4  0.10155826  0.64724442  0.61962944  1
  As  As1  4  0.32062268  0.56532325  0.21142132  1
  O  O2  4  0.01615587  0.04082294  0.20543119  1
  O  O3  4  0.12912559  0.67374464  0.99145464  1
  O  O4  4  0.45727855  0.15315950  0.02997080  1
