# generated using pymatgen
data_ZnO
_symmetry_space_group_name_H-M   R3m
_cell_length_a   3.27473808
_cell_length_b   3.27473808
_cell_length_c   144.00688793
_cell_angle_alpha   90.00000000
_cell_angle_beta   90.00000000
_cell_angle_gamma   120.00000000
_symmetry_Int_Tables_number   160
_chemical_formula_structural   ZnO
_chemical_formula_sum   'Zn54 O54'
_cell_volume   1337.41760772
_cell_formula_units_Z   54
loop_
 _symmetry_equiv_pos_site_id
 _symmetry_equiv_pos_as_xyz
  1  'x, y, z'
  2  '-y, x-y, z'
  3  '-x+y, -x, z'
  4  '-y, -x, z'
  5  '-x+y, y, z'
  6  'x, x-y, z'
  7  'x+2/3, y+1/3, z+1/3'
  8  '-y+2/3, x-y+1/3, z+1/3'
  9  '-x+y+2/3, -x+1/3, z+1/3'
  10  '-y+2/3, -x+1/3, z+1/3'
  11  '-x+y+2/3, y+1/3, z+1/3'
  12  'x+2/3, x-y+1/3, z+1/3'
  13  'x+1/3, y+2/3, z+2/3'
  14  '-y+1/3, x-y+2/3, z+2/3'
  15  '-x+y+1/3, -x+2/3, z+2/3'
  16  '-y+1/3, -x+2/3, z+2/3'
  17  '-x+y+1/3, y+2/3, z+2/3'
  18  'x+1/3, x-y+2/3, z+2/3'
loop_
 _atom_site_type_symbol
 _atom_site_label
 _atom_site_symmetry_multiplicity
 _atom_site_fract_x
 _atom_site_fract_y
 _atom_site_fract_z
 _atom_site_occupancy
  Zn  Zn0  3  0.00000000  0.00000000  0.05554645  1
  Zn  Zn1  3  0.00000000  0.00000000  0.11110130  1
  Zn  Zn2  3  0.00000000  0.00000000  0.16664737  1
  Zn  Zn3  3  0.00000000  0.00000000  0.20369384  1
  Zn  Zn4  3  0.00000000  0.00000000  0.27776505  1
  Zn  Zn5  3  0.00000000  0.00000000  0.35182742  1
  Zn  Zn6  3  0.00000000  0.00000000  0.42590356  1
  Zn  Zn7  3  0.00000000  0.00000000  0.46293594  1
  Zn  Zn8  3  0.00000000  0.00000000  0.51853331  1
  Zn  Zn9  3  0.00000000  0.00000000  0.57406012  1
  Zn  Zn10  3  0.00000000  0.00000000  0.64813702  1
  Zn  Zn11  3  0.00000000  0.00000000  0.70367802  1
  Zn  Zn12  3  0.00000000  0.00000000  0.74071589  1
  Zn  Zn13  3  0.00000000  0.00000000  0.81478896  1
  Zn  Zn14  3  0.00000000  0.00000000  0.88886391  1
  Zn  Zn15  3  0.00000000  0.00000000  0.92589377  1
  Zn  Zn16  3  0.00000000  0.00000000  0.96293383  1
  Zn  Zn17  3  0.00000000  0.00000000  0.99997344  1
  O  O18  3  0.00000000  0.00000000  0.01390019  1
  O  O19  3  0.00000000  0.00000000  0.06945345  1
  O  O20  3  0.00000000  0.00000000  0.12500689  1
  O  O21  3  0.00000000  0.00000000  0.18058427  1
  O  O22  3  0.00000000  0.00000000  0.21761236  1
  O  O23  3  0.00000000  0.00000000  0.29167307  1
  O  O24  3  0.00000000  0.00000000  0.36575333  1
  O  O25  3  0.00000000  0.00000000  0.43983360  1
  O  O26  3  0.00000000  0.00000000  0.47686134  1
  O  O27  3  0.00000000  0.00000000  0.53244223  1
  O  O28  3  0.00000000  0.00000000  0.58796653  1
  O  O29  3  0.00000000  0.00000000  0.66204439  1
  O  O30  3  0.00000000  0.00000000  0.71760933  1
  O  O31  3  0.00000000  0.00000000  0.75464246  1
  O  O32  3  0.00000000  0.00000000  0.82871642  1
  O  O33  3  0.00000000  0.00000000  0.90279376  1
  O  O34  3  0.00000000  0.00000000  0.93982692  1
  O  O35  3  0.00000000  0.00000000  0.97686598  1
