# generated using pymatgen
data_ZnSe
_symmetry_space_group_name_H-M   R3m
_cell_length_a   4.05745884
_cell_length_b   4.05745884
_cell_length_c   178.92761893
_cell_angle_alpha   90.00000000
_cell_angle_beta   90.00000000
_cell_angle_gamma   120.00000000
_symmetry_Int_Tables_number   160
_chemical_formula_structural   ZnSe
_chemical_formula_sum   'Zn54 Se54'
_cell_volume   2551.03407782
_cell_formula_units_Z   54
loop_
 _symmetry_equiv_pos_site_id
 _symmetry_equiv_pos_as_xyz
  1  'x, y, z'
  2  '-y, x-y, z'
  3  '-x+y, -x, z'
  4  '-y, -x, z'
  5  '-x+y, y, z'
  6  'x, x-y, z'
  7  'x+2/3, y+1/3, z+1/3'
  8  '-y+2/3, x-y+1/3, z+1/3'
  9  '-x+y+2/3, -x+1/3, z+1/3'
  10  '-y+2/3, -x+1/3, z+1/3'
  11  '-x+y+2/3, y+1/3, z+1/3'
  12  'x+2/3, x-y+1/3, z+1/3'
  13  'x+1/3, y+2/3, z+2/3'
  14  '-y+1/3, x-y+2/3, z+2/3'
  15  '-x+y+1/3, -x+2/3, z+2/3'
  16  '-y+1/3, -x+2/3, z+2/3'
  17  '-x+y+1/3, y+2/3, z+2/3'
  18  'x+1/3, x-y+2/3, z+2/3'
loop_
 _atom_site_type_symbol
 _atom_site_label
 _atom_site_symmetry_multiplicity
 _atom_site_fract_x
 _atom_site_fract_y
 _atom_site_fract_z
 _atom_site_occupancy
  Zn  Zn0  3  0.00000000  0.00000000  0.05553971  1
  Zn  Zn1  3  0.00000000  0.00000000  0.11109456  1
  Zn  Zn2  3  0.00000000  0.00000000  0.16665132  1
  Zn  Zn3  3  0.00000000  0.00000000  0.20371778  1
  Zn  Zn4  3  0.00000000  0.00000000  0.27775941  1
  Zn  Zn5  3  0.00000000  0.00000000  0.35183757  1
  Zn  Zn6  3  0.00000000  0.00000000  0.42590809  1
  Zn  Zn7  3  0.00000000  0.00000000  0.46296149  1
  Zn  Zn8  3  0.00000000  0.00000000  0.51852637  1
  Zn  Zn9  3  0.00000000  0.00000000  0.57405340  1
  Zn  Zn10  3  0.00000000  0.00000000  0.64813130  1
  Zn  Zn11  3  0.00000000  0.00000000  0.70368157  1
  Zn  Zn12  3  0.00000000  0.00000000  0.74074141  1
  Zn  Zn13  3  0.00000000  0.00000000  0.81479956  1
  Zn  Zn14  3  0.00000000  0.00000000  0.88886933  1
  Zn  Zn15  3  0.00000000  0.00000000  0.92591391  1
  Zn  Zn16  3  0.00000000  0.00000000  0.96295402  1
  Zn  Zn17  3  0.00000000  0.00000000  0.99999920  1
  Se  Se18  3  0.00000000  0.00000000  0.01389126  1
  Se  Se19  3  0.00000000  0.00000000  0.06946476  1
  Se  Se20  3  0.00000000  0.00000000  0.12501844  1
  Se  Se21  3  0.00000000  0.00000000  0.18055080  1
  Se  Se22  3  0.00000000  0.00000000  0.21760192  1
  Se  Se23  3  0.00000000  0.00000000  0.29168225  1
  Se  Se24  3  0.00000000  0.00000000  0.36573719  1
  Se  Se25  3  0.00000000  0.00000000  0.43979900  1
  Se  Se26  3  0.00000000  0.00000000  0.47685303  1
  Se  Se27  3  0.00000000  0.00000000  0.53244976  1
  Se  Se28  3  0.00000000  0.00000000  0.58797591  1
  Se  Se29  3  0.00000000  0.00000000  0.66205553  1
  Se  Se30  3  0.00000000  0.00000000  0.71757448  1
  Se  Se31  3  0.00000000  0.00000000  0.75463229  1
  Se  Se32  3  0.00000000  0.00000000  0.82870164  1
  Se  Se33  3  0.00000000  0.00000000  0.90275847  1
  Se  Se34  3  0.00000000  0.00000000  0.93979715  1
  Se  Se35  3  0.00000000  0.00000000  0.97683654  1
