# generated using pymatgen
data_ZnSe
_symmetry_space_group_name_H-M   P3m1
_cell_length_a   4.05355999
_cell_length_b   4.05355999
_cell_length_c   33.14211907
_cell_angle_alpha   90.00000000
_cell_angle_beta   90.00000000
_cell_angle_gamma   120.00000000
_symmetry_Int_Tables_number   156
_chemical_formula_structural   ZnSe
_chemical_formula_sum   'Zn10 Se10'
_cell_volume   471.61120493
_cell_formula_units_Z   10
loop_
 _symmetry_equiv_pos_site_id
 _symmetry_equiv_pos_as_xyz
  1  'x, y, z'
  2  '-y, x-y, z'
  3  '-x+y, -x, z'
  4  '-y, -x, z'
  5  '-x+y, y, z'
  6  'x, x-y, z'
loop_
 _atom_site_type_symbol
 _atom_site_label
 _atom_site_symmetry_multiplicity
 _atom_site_fract_x
 _atom_site_fract_y
 _atom_site_fract_z
 _atom_site_occupancy
  Zn  Zn0  1  0.00000000  0.00000000  0.10013098  1
  Zn  Zn1  1  0.00000000  0.00000000  0.40002123  1
  Zn  Zn2  1  0.00000000  0.00000000  0.69992661  1
  Zn  Zn3  1  0.00000000  0.00000000  0.90005180  1
  Zn  Zn4  1  0.33333333  0.66666667  0.20006732  1
  Zn  Zn5  1  0.33333333  0.66666667  0.50002320  1
  Zn  Zn6  1  0.33333333  0.66666667  0.79997831  1
  Zn  Zn7  1  0.66666667  0.33333333  0.00001188  1
  Zn  Zn8  1  0.66666667  0.33333333  0.30003643  1
  Zn  Zn9  1  0.66666667  0.33333333  0.59998947  1
  Se  Se10  1  0.00000000  0.00000000  0.17503428  1
  Se  Se11  1  0.00000000  0.00000000  0.47497252  1
  Se  Se12  1  0.00000000  0.00000000  0.77483484  1
  Se  Se13  1  0.00000000  0.00000000  0.97490217  1
  Se  Se14  1  0.33333333  0.66666667  0.27500713  1
  Se  Se15  1  0.33333333  0.66666667  0.57496439  1
  Se  Se16  1  0.33333333  0.66666667  0.87505343  1
  Se  Se17  1  0.66666667  0.33333333  0.07509376  1
  Se  Se18  1  0.66666667  0.33333333  0.37497971  1
  Se  Se19  1  0.66666667  0.33333333  0.67491951  1
