# generated using pymatgen
data_ZrBiClO3
_symmetry_space_group_name_H-M   Pnma
_cell_length_a   13.44671767
_cell_length_b   5.98096803
_cell_length_c   6.11175608
_cell_angle_alpha   90.00000000
_cell_angle_beta   90.00000000
_cell_angle_gamma   90.00000000
_symmetry_Int_Tables_number   62
_chemical_formula_structural   ZrBiClO3
_chemical_formula_sum   'Zr4 Bi4 Cl4 O12'
_cell_volume   491.53424546
_cell_formula_units_Z   4
loop_
 _symmetry_equiv_pos_site_id
 _symmetry_equiv_pos_as_xyz
  1  'x, y, z'
  2  '-x, -y, -z'
  3  '-x+1/2, -y, z+1/2'
  4  'x+1/2, y, -z+1/2'
  5  'x+1/2, -y+1/2, -z+1/2'
  6  '-x+1/2, y+1/2, z+1/2'
  7  '-x, y+1/2, -z'
  8  'x, -y+1/2, z'
loop_
 _atom_site_type_symbol
 _atom_site_label
 _atom_site_symmetry_multiplicity
 _atom_site_fract_x
 _atom_site_fract_y
 _atom_site_fract_z
 _atom_site_occupancy
  Zr  Zr0  4  0.19332894  0.75000000  0.45341386  1
  Bi  Bi1  4  0.05469217  0.25000000  0.31901434  1
  Cl  Cl2  4  0.12703926  0.75000000  0.06469265  1
  O  O3  8  0.10813037  0.50379654  0.54570076  1
  O  O4  4  0.19642752  0.25000000  0.15343577  1
