# generated using pymatgen
data_ZrS2
_symmetry_space_group_name_H-M   Pbca
_cell_length_a   6.34508399
_cell_length_b   6.44637995
_cell_length_c   12.25781015
_cell_angle_alpha   90.00000000
_cell_angle_beta   90.00000000
_cell_angle_gamma   90.00000000
_symmetry_Int_Tables_number   61
_chemical_formula_structural   ZrS2
_chemical_formula_sum   'Zr8 S16'
_cell_volume   501.37902930
_cell_formula_units_Z   8
loop_
 _symmetry_equiv_pos_site_id
 _symmetry_equiv_pos_as_xyz
  1  'x, y, z'
  2  '-x, -y, -z'
  3  '-x+1/2, -y, z+1/2'
  4  'x+1/2, y, -z+1/2'
  5  'x+1/2, -y+1/2, -z'
  6  '-x+1/2, y+1/2, z'
  7  '-x, y+1/2, -z+1/2'
  8  'x, -y+1/2, z+1/2'
loop_
 _atom_site_type_symbol
 _atom_site_label
 _atom_site_symmetry_multiplicity
 _atom_site_fract_x
 _atom_site_fract_y
 _atom_site_fract_z
 _atom_site_occupancy
  Zr  Zr0  8  0.06247060  0.15795037  0.85526776  1
  S  S1  8  0.15339899  0.67713073  0.46448051  1
  S  S2  8  0.24504032  0.58949904  0.21346350  1
