# generated using pymatgen
data_ZrSe2
_symmetry_space_group_name_H-M   P2_1/c
_cell_length_a   6.49426967
_cell_length_b   6.67344470
_cell_length_c   6.78219062
_cell_angle_alpha   90.00000000
_cell_angle_beta   99.68043497
_cell_angle_gamma   90.00000000
_symmetry_Int_Tables_number   14
_chemical_formula_structural   ZrSe2
_chemical_formula_sum   'Zr4 Se8'
_cell_volume   289.74902612
_cell_formula_units_Z   4
loop_
 _symmetry_equiv_pos_site_id
 _symmetry_equiv_pos_as_xyz
  1  'x, y, z'
  2  '-x, -y, -z'
  3  '-x, y+1/2, -z+1/2'
  4  'x, -y+1/2, z+1/2'
loop_
 _atom_site_type_symbol
 _atom_site_label
 _atom_site_symmetry_multiplicity
 _atom_site_fract_x
 _atom_site_fract_y
 _atom_site_fract_z
 _atom_site_occupancy
  Zr  Zr0  4  0.29126780  0.06359411  0.20549836  1
  Se  Se1  4  0.07335681  0.15165825  0.83304855  1
  Se  Se2  4  0.42376076  0.73501939  0.98944702  1
