# generated using pymatgen
data_AgAsF4
_symmetry_space_group_name_H-M   'P 1'
_cell_length_a   5.17678538
_cell_length_b   6.16871228
_cell_length_c   6.60159878
_cell_angle_alpha   90.00139331
_cell_angle_beta   89.99837375
_cell_angle_gamma   93.35132296
_symmetry_Int_Tables_number   1
_chemical_formula_structural   AgAsF4
_chemical_formula_sum   'Ag2 As2 F8'
_cell_volume   210.45558588
_cell_formula_units_Z   2
loop_
 _symmetry_equiv_pos_site_id
 _symmetry_equiv_pos_as_xyz
  1  'x, y, z'
loop_
 _atom_site_type_symbol
 _atom_site_label
 _atom_site_symmetry_multiplicity
 _atom_site_fract_x
 _atom_site_fract_y
 _atom_site_fract_z
 _atom_site_occupancy
  Ag  Ag0  1  0.49999456  0.75002145  0.13233740  1.0
  Ag  Ag1  1  0.50000808  0.24997993  0.86765987  1.0
  As  As2  1  0.99998389  0.75002397  0.65898134  1.0
  As  As3  1  0.00000254  0.24996801  0.34106113  1.0
  F  F4  1  0.79658460  0.87185275  0.84638556  1.0
  F  F5  1  0.20343528  0.12813808  0.15359270  1.0
  F  F6  1  0.20343504  0.62814170  0.84642076  1.0
  F  F7  1  0.79655335  0.37186914  0.15356221  1.0
  F  F8  1  0.76844492  0.48473824  0.67627602  1.0
  F  F9  1  0.23155692  0.51526505  0.32372217  1.0
  F  F10  1  0.23154277  0.01527700  0.67626180  1.0
  F  F11  1  0.76845805  0.98472469  0.32373904  1.0
