# generated using pymatgen
data_AgHgCl2
_symmetry_space_group_name_H-M   'P 1'
_cell_length_a   5.04266231
_cell_length_b   5.04266177
_cell_length_c   5.04266268
_cell_angle_alpha   59.99996326
_cell_angle_beta   59.99996887
_cell_angle_gamma   59.99996242
_symmetry_Int_Tables_number   1
_chemical_formula_structural   AgHgCl2
_chemical_formula_sum   'Ag1 Hg1 Cl2'
_cell_volume   90.67014268
_cell_formula_units_Z   1
loop_
 _symmetry_equiv_pos_site_id
 _symmetry_equiv_pos_as_xyz
  1  'x, y, z'
loop_
 _atom_site_type_symbol
 _atom_site_label
 _atom_site_symmetry_multiplicity
 _atom_site_fract_x
 _atom_site_fract_y
 _atom_site_fract_z
 _atom_site_occupancy
  Ag  Ag0  1  0.24999896  0.24999893  0.24999895  1.0
  Hg  Hg1  1  0.75000116  0.75000116  0.75000118  1.0
  Cl  Cl2  1  0.49999894  0.49999895  0.49999900  1.0
  Cl  Cl3  1  0.99999994  0.99999996  0.99999987  1.0
