# generated using pymatgen
data_AlHS2
_symmetry_space_group_name_H-M   'P 1'
_cell_length_a   7.51445491
_cell_length_b   7.51443425
_cell_length_c   7.24012834
_cell_angle_alpha   101.03459880
_cell_angle_beta   101.03456290
_cell_angle_gamma   114.81364832
_symmetry_Int_Tables_number   1
_chemical_formula_structural   AlHS2
_chemical_formula_sum   'Al4 H4 S8'
_cell_volume   346.86805469
_cell_formula_units_Z   4
loop_
 _symmetry_equiv_pos_site_id
 _symmetry_equiv_pos_as_xyz
  1  'x, y, z'
loop_
 _atom_site_type_symbol
 _atom_site_label
 _atom_site_symmetry_multiplicity
 _atom_site_fract_x
 _atom_site_fract_y
 _atom_site_fract_z
 _atom_site_occupancy
  Al  Al0  1  0.91679606  0.66233272  0.61113282  1.0
  Al  Al1  1  0.33768629  0.08320212  0.88888204  1.0
  Al  Al2  1  0.08320758  0.33769282  0.38887964  1.0
  Al  Al3  1  0.66232645  0.91679146  0.11113575  1.0
  H  H4  1  0.68481471  0.56386092  0.60938901  1.0
  H  H5  1  0.43612082  0.31517559  0.89059738  1.0
  H  H6  1  0.31517208  0.43611824  0.39059920  1.0
  H  H7  1  0.56386020  0.68481791  0.10938832  1.0
  S  S8  1  0.11018938  0.94616438  0.52085151  1.0
  S  S9  1  0.05382910  0.88982634  0.97915242  1.0
  S  S10  1  0.88982103  0.05382870  0.47915329  1.0
  S  S11  1  0.94616979  0.11018675  0.02084859  1.0
  S  S12  1  0.83572938  0.43385725  0.26409591  1.0
  S  S13  1  0.56614799  0.16426838  0.23589916  1.0
  S  S14  1  0.16427757  0.56615447  0.73590167  1.0
  S  S15  1  0.43385158  0.83572192  0.76409329  1.0
