# generated using pymatgen
data_AlSeF
_symmetry_space_group_name_H-M   'P 1'
_cell_length_a   4.18533119
_cell_length_b   4.18533077
_cell_length_c   4.18533137
_cell_angle_alpha   59.99996957
_cell_angle_beta   59.99996637
_cell_angle_gamma   59.99996363
_symmetry_Int_Tables_number   1
_chemical_formula_structural   AlSeF
_chemical_formula_sum   'Al1 Se1 F1'
_cell_volume   51.84109155
_cell_formula_units_Z   1
loop_
 _symmetry_equiv_pos_site_id
 _symmetry_equiv_pos_as_xyz
  1  'x, y, z'
loop_
 _atom_site_type_symbol
 _atom_site_label
 _atom_site_symmetry_multiplicity
 _atom_site_fract_x
 _atom_site_fract_y
 _atom_site_fract_z
 _atom_site_occupancy
  Al  Al0  1  0.25000004  0.25000001  0.25000001  1.0
  Se  Se1  1  0.00000002  0.00000004  0.00000005  1.0
  F  F2  1  0.74999993  0.74999994  0.74999994  1.0
