# generated using pymatgen
data_AsBrF4
_symmetry_space_group_name_H-M   'P 1'
_cell_length_a   5.35876379
_cell_length_b   6.79459412
_cell_length_c   7.00990406
_cell_angle_alpha   88.63640012
_cell_angle_beta   91.95482720
_cell_angle_gamma   82.20871000
_symmetry_Int_Tables_number   1
_chemical_formula_structural   AsBrF4
_chemical_formula_sum   'As2 Br2 F8'
_cell_volume   252.62747937
_cell_formula_units_Z   2
loop_
 _symmetry_equiv_pos_site_id
 _symmetry_equiv_pos_as_xyz
  1  'x, y, z'
loop_
 _atom_site_type_symbol
 _atom_site_label
 _atom_site_symmetry_multiplicity
 _atom_site_fract_x
 _atom_site_fract_y
 _atom_site_fract_z
 _atom_site_occupancy
  As  As0  1  0.54530792  0.74547194  0.36606838  1.0
  As  As1  1  0.45672234  0.25327095  0.63270647  1.0
  Br  Br2  1  0.91529946  0.79971208  0.83909029  1.0
  Br  Br3  1  0.08343579  0.19997589  0.16054164  1.0
  F  F4  1  0.60030223  0.10817201  0.83482859  1.0
  F  F5  1  0.40094147  0.89275042  0.16550692  1.0
  F  F6  1  0.13840342  0.57312498  0.83607488  1.0
  F  F7  1  0.85611426  0.42432099  0.16443699  1.0
  F  F8  1  0.64454491  0.44548305  0.66758196  1.0
  F  F9  1  0.35200916  0.55659425  0.33238614  1.0
  F  F10  1  0.33877846  0.86794067  0.53185544  1.0
  F  F11  1  0.66814056  0.13318277  0.46892230  1.0
