# generated using pymatgen
data_Ba2AsCl
_symmetry_space_group_name_H-M   'P 1'
_cell_length_a   5.66793760
_cell_length_b   5.66793739
_cell_length_c   5.66793751
_cell_angle_alpha   59.99999661
_cell_angle_beta   59.99999764
_cell_angle_gamma   60.00000039
_symmetry_Int_Tables_number   1
_chemical_formula_structural   Ba2AsCl
_chemical_formula_sum   'Ba2 As1 Cl1'
_cell_volume   128.75382580
_cell_formula_units_Z   1
loop_
 _symmetry_equiv_pos_site_id
 _symmetry_equiv_pos_as_xyz
  1  'x, y, z'
loop_
 _atom_site_type_symbol
 _atom_site_label
 _atom_site_symmetry_multiplicity
 _atom_site_fract_x
 _atom_site_fract_y
 _atom_site_fract_z
 _atom_site_occupancy
  Ba  Ba0  1  0.24999988  0.25000002  0.25000008  1.0
  Ba  Ba1  1  0.75000013  0.74999995  0.74999994  1.0
  As  As2  1  0.99999998  0.00000002  0.00000000  1.0
  Cl  Cl3  1  0.50000000  0.50000001  0.49999998  1.0
