# generated using pymatgen
data_BaCdI4
_symmetry_space_group_name_H-M   'P 1'
_cell_length_a   9.90270565
_cell_length_b   7.43986937
_cell_length_c   8.14297911
_cell_angle_alpha   85.67635887
_cell_angle_beta   89.99498058
_cell_angle_gamma   90.00586894
_symmetry_Int_Tables_number   1
_chemical_formula_structural   BaCdI4
_chemical_formula_sum   'Ba2 Cd2 I8'
_cell_volume   598.22530665
_cell_formula_units_Z   2
loop_
 _symmetry_equiv_pos_site_id
 _symmetry_equiv_pos_as_xyz
  1  'x, y, z'
loop_
 _atom_site_type_symbol
 _atom_site_label
 _atom_site_symmetry_multiplicity
 _atom_site_fract_x
 _atom_site_fract_y
 _atom_site_fract_z
 _atom_site_occupancy
  Ba  Ba0  1  0.19023929  0.00000777  0.24999227  1.0
  Ba  Ba1  1  0.80976072  0.99999220  0.75000772  1.0
  Cd  Cd2  1  0.75265013  0.49997691  0.25002444  1.0
  Cd  Cd3  1  0.24734985  0.50002325  0.74997545  1.0
  I  I4  1  0.08537213  0.74661338  0.92912702  1.0
  I  I5  1  0.08536853  0.25337995  0.57087799  1.0
  I  I6  1  0.91462788  0.25338660  0.07087297  1.0
  I  I7  1  0.91463146  0.74662006  0.42912198  1.0
  I  I8  1  0.38739692  0.73456188  0.52339297  1.0
  I  I9  1  0.38741564  0.26540881  0.97663629  1.0
  I  I10  1  0.61260302  0.26543806  0.47660709  1.0
  I  I11  1  0.61258443  0.73459112  0.02336380  1.0
