# generated using pymatgen
data_BaCN2
_symmetry_space_group_name_H-M   'P 1'
_cell_length_a   5.14178438
_cell_length_b   5.14176027
_cell_length_c   7.43771777
_cell_angle_alpha   76.83412784
_cell_angle_beta   76.83468817
_cell_angle_gamma   95.38631006
_symmetry_Int_Tables_number   1
_chemical_formula_structural   BaCN2
_chemical_formula_sum   'Ba2 C2 N4'
_cell_volume   184.22006825
_cell_formula_units_Z   2
loop_
 _symmetry_equiv_pos_site_id
 _symmetry_equiv_pos_as_xyz
  1  'x, y, z'
loop_
 _atom_site_type_symbol
 _atom_site_label
 _atom_site_symmetry_multiplicity
 _atom_site_fract_x
 _atom_site_fract_y
 _atom_site_fract_z
 _atom_site_occupancy
  Ba  Ba0  1  0.83463741  0.16535299  0.25000620  1.0
  Ba  Ba1  1  0.16536227  0.83464654  0.74999350  1.0
  C  C2  1  0.21192981  0.78807578  0.25000285  1.0
  C  C3  1  0.78807006  0.21192416  0.74999698  1.0
  N  N4  1  0.09532792  0.69121158  0.14583523  1.0
  N  N5  1  0.30878433  0.90466924  0.35416376  1.0
  N  N6  1  0.90467219  0.30878827  0.85416486  1.0
  N  N7  1  0.69121600  0.09533143  0.64583662  1.0
