# generated using pymatgen
data_BaCuBr4
_symmetry_space_group_name_H-M   'P 1'
_cell_length_a   7.29085993
_cell_length_b   7.36495578
_cell_length_c   8.23000055
_cell_angle_alpha   67.56730429
_cell_angle_beta   89.99991854
_cell_angle_gamma   89.99987051
_symmetry_Int_Tables_number   1
_chemical_formula_structural   BaCuBr4
_chemical_formula_sum   'Ba2 Cu2 Br8'
_cell_volume   408.48402035
_cell_formula_units_Z   2
loop_
 _symmetry_equiv_pos_site_id
 _symmetry_equiv_pos_as_xyz
  1  'x, y, z'
loop_
 _atom_site_type_symbol
 _atom_site_label
 _atom_site_symmetry_multiplicity
 _atom_site_fract_x
 _atom_site_fract_y
 _atom_site_fract_z
 _atom_site_occupancy
  Ba  Ba0  1  0.24001512  0.49999902  0.75000049  1.0
  Ba  Ba1  1  0.75998839  0.50000114  0.24999958  1.0
  Cu  Cu2  1  0.82679835  0.00000009  0.74999939  1.0
  Cu  Cu3  1  0.17319615  0.99999931  0.25000001  1.0
  Br  Br4  1  0.59455233  0.74288860  0.85470231  1.0
  Br  Br5  1  0.94069294  0.78467359  0.44443523  1.0
  Br  Br6  1  0.40544915  0.74288459  0.35470384  1.0
  Br  Br7  1  0.05930773  0.78467510  0.94443383  1.0
  Br  Br8  1  0.94069264  0.21532639  0.05556601  1.0
  Br  Br9  1  0.59455238  0.25711260  0.64529563  1.0
  Br  Br10  1  0.05930715  0.21532506  0.55556505  1.0
  Br  Br11  1  0.40544766  0.25711451  0.14529863  1.0
