# generated using pymatgen
data_BaHBr
_symmetry_space_group_name_H-M   'P 1'
_cell_length_a   5.18870054
_cell_length_b   5.18870056
_cell_length_c   5.18870038
_cell_angle_alpha   59.99998378
_cell_angle_beta   59.99997886
_cell_angle_gamma   59.99997779
_symmetry_Int_Tables_number   1
_chemical_formula_structural   BaHBr
_chemical_formula_sum   'Ba1 H1 Br1'
_cell_volume   98.77808783
_cell_formula_units_Z   1
loop_
 _symmetry_equiv_pos_site_id
 _symmetry_equiv_pos_as_xyz
  1  'x, y, z'
loop_
 _atom_site_type_symbol
 _atom_site_label
 _atom_site_symmetry_multiplicity
 _atom_site_fract_x
 _atom_site_fract_y
 _atom_site_fract_z
 _atom_site_occupancy
  Ba  Ba0  1  0.24999998  0.25000007  0.24999998  1.0
  H  H1  1  0.99999995  0.99999997  0.99999997  1.0
  Br  Br2  1  0.50000006  0.49999997  0.50000005  1.0
