# generated using pymatgen
data_BaHgCl4
_symmetry_space_group_name_H-M   'P 1'
_cell_length_a   7.36058137
_cell_length_b   6.98860979
_cell_length_c   7.32888002
_cell_angle_alpha   79.89309638
_cell_angle_beta   90.00000079
_cell_angle_gamma   89.99999889
_symmetry_Int_Tables_number   1
_chemical_formula_structural   BaHgCl4
_chemical_formula_sum   'Ba2 Hg2 Cl8'
_cell_volume   371.14902263
_cell_formula_units_Z   2
loop_
 _symmetry_equiv_pos_site_id
 _symmetry_equiv_pos_as_xyz
  1  'x, y, z'
loop_
 _atom_site_type_symbol
 _atom_site_label
 _atom_site_symmetry_multiplicity
 _atom_site_fract_x
 _atom_site_fract_y
 _atom_site_fract_z
 _atom_site_occupancy
  Ba  Ba0  1  0.26369343  0.50000000  0.75000000  1.0
  Ba  Ba1  1  0.73630657  0.50000000  0.25000000  1.0
  Hg  Hg2  1  0.82503992  0.99999999  0.75000000  1.0
  Hg  Hg3  1  0.17496008  0.00000001  0.25000000  1.0
  Cl  Cl4  1  0.57725593  0.75134228  0.89440630  1.0
  Cl  Cl5  1  0.94159386  0.76116408  0.50424316  1.0
  Cl  Cl6  1  0.42274407  0.75134229  0.39440630  1.0
  Cl  Cl7  1  0.05840613  0.76116407  0.00424316  1.0
  Cl  Cl8  1  0.94159387  0.23883593  0.99575684  1.0
  Cl  Cl9  1  0.57725593  0.24865771  0.60559370  1.0
  Cl  Cl10  1  0.05840614  0.23883593  0.49575684  1.0
  Cl  Cl11  1  0.42274407  0.24865772  0.10559370  1.0
