# generated using pymatgen
data_BaHgF4
_symmetry_space_group_name_H-M   'P 1'
_cell_length_a   6.32761662
_cell_length_b   5.90196731
_cell_length_c   6.08775385
_cell_angle_alpha   92.66157667
_cell_angle_beta   89.99915213
_cell_angle_gamma   89.99973383
_symmetry_Int_Tables_number   1
_chemical_formula_structural   BaHgF4
_chemical_formula_sum   'Ba2 Hg2 F8'
_cell_volume   227.10426462
_cell_formula_units_Z   2
loop_
 _symmetry_equiv_pos_site_id
 _symmetry_equiv_pos_as_xyz
  1  'x, y, z'
loop_
 _atom_site_type_symbol
 _atom_site_label
 _atom_site_symmetry_multiplicity
 _atom_site_fract_x
 _atom_site_fract_y
 _atom_site_fract_z
 _atom_site_occupancy
  Ba  Ba0  1  0.76011473  0.00000017  0.75000017  1.0
  Ba  Ba1  1  0.23988528  0.99999985  0.24999984  1.0
  Hg  Hg2  1  0.29792167  0.49999807  0.75000063  1.0
  Hg  Hg3  1  0.70207836  0.50000188  0.24999936  1.0
  F  F4  1  0.53482428  0.74123475  0.01455185  1.0
  F  F5  1  0.92380941  0.75962079  0.40657469  1.0
  F  F6  1  0.46517644  0.74123644  0.51455049  1.0
  F  F7  1  0.07618976  0.75962189  0.90657542  1.0
  F  F8  1  0.92381021  0.24037811  0.09342460  1.0
  F  F9  1  0.53482357  0.25876358  0.48544950  1.0
  F  F10  1  0.07619058  0.24037922  0.59342531  1.0
  F  F11  1  0.46517572  0.25876526  0.98544815  1.0
