# generated using pymatgen
data_BaMnCl4
_symmetry_space_group_name_H-M   'P 1'
_cell_length_a   7.40191014
_cell_length_b   6.48126258
_cell_length_c   7.38681361
_cell_angle_alpha   89.83303917
_cell_angle_beta   90.00000088
_cell_angle_gamma   90.00007038
_symmetry_Int_Tables_number   1
_chemical_formula_structural   BaMnCl4
_chemical_formula_sum   'Ba2 Mn2 Cl8'
_cell_volume   354.37144696
_cell_formula_units_Z   2
loop_
 _symmetry_equiv_pos_site_id
 _symmetry_equiv_pos_as_xyz
  1  'x, y, z'
loop_
 _atom_site_type_symbol
 _atom_site_label
 _atom_site_symmetry_multiplicity
 _atom_site_fract_x
 _atom_site_fract_y
 _atom_site_fract_z
 _atom_site_occupancy
  Ba  Ba0  1  0.24879092  0.49999993  0.75000020  1.0
  Ba  Ba1  1  0.75120905  0.50000007  0.24999977  1.0
  Mn  Mn2  1  0.74705727  0.99999979  0.74999945  1.0
  Mn  Mn3  1  0.25294229  0.00000022  0.25000049  1.0
  Cl  Cl4  1  0.57579523  0.75918046  0.92399919  1.0
  Cl  Cl5  1  0.92017473  0.75862502  0.57865039  1.0
  Cl  Cl6  1  0.42420553  0.75918028  0.42399815  1.0
  Cl  Cl7  1  0.07982586  0.75862514  0.07864920  1.0
  Cl  Cl8  1  0.92017425  0.24137413  0.92135097  1.0
  Cl  Cl9  1  0.57579469  0.24082028  0.57600215  1.0
  Cl  Cl10  1  0.07982528  0.24137569  0.42134949  1.0
  Cl  Cl11  1  0.42420491  0.24081898  0.07600055  1.0
