# generated using pymatgen
data_BaOsCl4
_symmetry_space_group_name_H-M   'P 1'
_cell_length_a   7.21127878
_cell_length_b   6.55281380
_cell_length_c   6.95832142
_cell_angle_alpha   84.33024495
_cell_angle_beta   89.99999592
_cell_angle_gamma   90.00000817
_symmetry_Int_Tables_number   1
_chemical_formula_structural   BaOsCl4
_chemical_formula_sum   'Ba2 Os2 Cl8'
_cell_volume   327.20110003
_cell_formula_units_Z   2
loop_
 _symmetry_equiv_pos_site_id
 _symmetry_equiv_pos_as_xyz
  1  'x, y, z'
loop_
 _atom_site_type_symbol
 _atom_site_label
 _atom_site_symmetry_multiplicity
 _atom_site_fract_x
 _atom_site_fract_y
 _atom_site_fract_z
 _atom_site_occupancy
  Ba  Ba0  1  0.30340042  0.49999999  0.75000003  1.0
  Ba  Ba1  1  0.69661161  0.50000001  0.24999997  1.0
  Os  Os2  1  0.88159202  0.00000001  0.75000000  1.0
  Os  Os3  1  0.11840496  0.99999999  0.25000000  1.0
  Cl  Cl4  1  0.63472948  0.78205557  0.88805500  1.0
  Cl  Cl5  1  0.89992399  0.80699683  0.46783920  1.0
  Cl  Cl6  1  0.36526736  0.78205371  0.38805115  1.0
  Cl  Cl7  1  0.10007451  0.80699762  0.96783619  1.0
  Cl  Cl8  1  0.89992406  0.19300317  0.03216084  1.0
  Cl  Cl9  1  0.63472956  0.21794450  0.61194503  1.0
  Cl  Cl10  1  0.10007458  0.19300238  0.53216377  1.0
  Cl  Cl11  1  0.36526745  0.21794622  0.11194881  1.0
