# generated using pymatgen
data_BaPbI4
_symmetry_space_group_name_H-M   'P 1'
_cell_length_a   8.10806324
_cell_length_b   8.48852964
_cell_length_c   8.39001935
_cell_angle_alpha   90.00004344
_cell_angle_beta   89.99994960
_cell_angle_gamma   78.35048224
_symmetry_Int_Tables_number   1
_chemical_formula_structural   BaPbI4
_chemical_formula_sum   'Ba2 Pb2 I8'
_cell_volume   565.55278829
_cell_formula_units_Z   2
loop_
 _symmetry_equiv_pos_site_id
 _symmetry_equiv_pos_as_xyz
  1  'x, y, z'
loop_
 _atom_site_type_symbol
 _atom_site_label
 _atom_site_symmetry_multiplicity
 _atom_site_fract_x
 _atom_site_fract_y
 _atom_site_fract_z
 _atom_site_occupancy
  Ba  Ba0  1  0.99999476  0.75000062  0.76524466  1.0
  Ba  Ba1  1  0.00000517  0.24999941  0.23475533  1.0
  Pb  Pb2  1  0.50000474  0.74999702  0.32955267  1.0
  Pb  Pb3  1  0.49999528  0.25000309  0.67044742  1.0
  I  I4  1  0.74796538  0.09052524  0.94083234  1.0
  I  I5  1  0.25203440  0.90947481  0.05916782  1.0
  I  I6  1  0.25203360  0.40946546  0.94081915  1.0
  I  I7  1  0.74796645  0.59053443  0.05918086  1.0
  I  I8  1  0.76109829  0.48154715  0.56405294  1.0
  I  I9  1  0.23890179  0.51845277  0.43594679  1.0
  I  I10  1  0.23890623  0.01844499  0.56405124  1.0
  I  I11  1  0.76109390  0.98155501  0.43594878  1.0
