# generated using pymatgen
data_BaPtBr4
_symmetry_space_group_name_H-M   'P 1'
_cell_length_a   7.51951917
_cell_length_b   7.22736488
_cell_length_c   8.61232721
_cell_angle_alpha   110.79778320
_cell_angle_beta   89.99006670
_cell_angle_gamma   89.98918336
_symmetry_Int_Tables_number   1
_chemical_formula_structural   BaPtBr4
_chemical_formula_sum   'Ba2 Pt2 Br8'
_cell_volume   437.54987733
_cell_formula_units_Z   2
loop_
 _symmetry_equiv_pos_site_id
 _symmetry_equiv_pos_as_xyz
  1  'x, y, z'
loop_
 _atom_site_type_symbol
 _atom_site_label
 _atom_site_symmetry_multiplicity
 _atom_site_fract_x
 _atom_site_fract_y
 _atom_site_fract_z
 _atom_site_occupancy
  Ba  Ba0  1  0.74683127  0.00001256  0.75000556  1.0
  Ba  Ba1  1  0.25316925  0.99998752  0.24999451  1.0
  Pt  Pt2  1  0.26064724  0.49996034  0.74996576  1.0
  Pt  Pt3  1  0.73935033  0.50003990  0.25003437  1.0
  Br  Br4  1  0.49190086  0.72760970  0.91153918  1.0
  Br  Br5  1  0.96952293  0.73271774  0.40725807  1.0
  Br  Br6  1  0.50814028  0.72753804  0.41151170  1.0
  Br  Br7  1  0.03049039  0.73270517  0.90723985  1.0
  Br  Br8  1  0.96951432  0.26728988  0.09275679  1.0
  Br  Br9  1  0.49185611  0.27246583  0.58849058  1.0
  Br  Br10  1  0.03048163  0.26728674  0.59274509  1.0
  Br  Br11  1  0.50809538  0.27238660  0.08845855  1.0
