# generated using pymatgen
data_BaSnCl4
_symmetry_space_group_name_H-M   'P 1'
_cell_length_a   7.39062566
_cell_length_b   7.19303379
_cell_length_c   7.51930599
_cell_angle_alpha   80.20088867
_cell_angle_beta   89.99999923
_cell_angle_gamma   89.99999969
_symmetry_Int_Tables_number   1
_chemical_formula_structural   BaSnCl4
_chemical_formula_sum   'Ba2 Sn2 Cl8'
_cell_volume   393.90207336
_cell_formula_units_Z   2
loop_
 _symmetry_equiv_pos_site_id
 _symmetry_equiv_pos_as_xyz
  1  'x, y, z'
loop_
 _atom_site_type_symbol
 _atom_site_label
 _atom_site_symmetry_multiplicity
 _atom_site_fract_x
 _atom_site_fract_y
 _atom_site_fract_z
 _atom_site_occupancy
  Ba  Ba0  1  0.26124487  0.50000001  0.74999998  1.0
  Ba  Ba1  1  0.73875513  0.49999999  0.25000002  1.0
  Sn  Sn2  1  0.81880805  0.00000001  0.74999994  1.0
  Sn  Sn3  1  0.18119195  0.99999999  0.25000006  1.0
  Cl  Cl4  1  0.56497324  0.74871404  0.90563909  1.0
  Cl  Cl5  1  0.94002955  0.74374834  0.51412957  1.0
  Cl  Cl6  1  0.43502675  0.74871403  0.40563906  1.0
  Cl  Cl7  1  0.05997046  0.74374836  0.01412956  1.0
  Cl  Cl8  1  0.94002954  0.25625164  0.98587043  1.0
  Cl  Cl9  1  0.56497325  0.25128597  0.59436094  1.0
  Cl  Cl10  1  0.05997046  0.25625165  0.48587043  1.0
  Cl  Cl11  1  0.43502676  0.25128597  0.09436091  1.0
