# generated using pymatgen
data_BaSrH4
_symmetry_space_group_name_H-M   'P 1'
_cell_length_a   6.10331690
_cell_length_b   6.16125592
_cell_length_c   6.10052771
_cell_angle_alpha   89.93400679
_cell_angle_beta   90.00000001
_cell_angle_gamma   89.99999991
_symmetry_Int_Tables_number   1
_chemical_formula_structural   BaSrH4
_chemical_formula_sum   'Ba2 Sr2 H8'
_cell_volume   229.40468592
_cell_formula_units_Z   2
loop_
 _symmetry_equiv_pos_site_id
 _symmetry_equiv_pos_as_xyz
  1  'x, y, z'
loop_
 _atom_site_type_symbol
 _atom_site_label
 _atom_site_symmetry_multiplicity
 _atom_site_fract_x
 _atom_site_fract_y
 _atom_site_fract_z
 _atom_site_occupancy
  Ba  Ba0  1  0.25003275  0.50000000  0.75000000  1.0
  Ba  Ba1  1  0.74996725  0.50000000  0.25000000  1.0
  Sr  Sr2  1  0.74948628  0.00000000  0.75000000  1.0
  Sr  Sr3  1  0.25051372  0.00000000  0.25000000  1.0
  H  H4  1  0.50504849  0.76504743  0.99601143  1.0
  H  H5  1  0.99332054  0.76327682  0.50695009  1.0
  H  H6  1  0.49495151  0.76504743  0.49601143  1.0
  H  H7  1  0.00667946  0.76327682  0.00695009  1.0
  H  H8  1  0.99332054  0.23672318  0.99304991  1.0
  H  H9  1  0.50504849  0.23495257  0.50398857  1.0
  H  H10  1  0.00667946  0.23672318  0.49304990  1.0
  H  H11  1  0.49495151  0.23495257  0.00398857  1.0
