# generated using pymatgen
data_BaTeO4
_symmetry_space_group_name_H-M   'P 1'
_cell_length_a   6.68307554
_cell_length_b   5.76093240
_cell_length_c   5.33543596
_cell_angle_alpha   90.61894606
_cell_angle_beta   90.00088493
_cell_angle_gamma   90.00156310
_symmetry_Int_Tables_number   1
_chemical_formula_structural   BaTeO4
_chemical_formula_sum   'Ba2 Te2 O8'
_cell_volume   205.40628103
_cell_formula_units_Z   2
loop_
 _symmetry_equiv_pos_site_id
 _symmetry_equiv_pos_as_xyz
  1  'x, y, z'
loop_
 _atom_site_type_symbol
 _atom_site_label
 _atom_site_symmetry_multiplicity
 _atom_site_fract_x
 _atom_site_fract_y
 _atom_site_fract_z
 _atom_site_occupancy
  Ba  Ba0  1  0.81366862  0.00001387  0.74999602  1.0
  Ba  Ba1  1  0.18633020  0.99998642  0.25000382  1.0
  Te  Te2  1  0.35797584  0.49999836  0.74999800  1.0
  Te  Te3  1  0.64208568  0.50000015  0.25000147  1.0
  O  O4  1  0.58086730  0.67978963  0.93363050  1.0
  O  O5  1  0.82521472  0.73265341  0.33917850  1.0
  O  O6  1  0.41913372  0.67979563  0.43363227  1.0
  O  O7  1  0.17477884  0.73267644  0.83917636  1.0
  O  O8  1  0.82520296  0.26734527  0.16083075  1.0
  O  O9  1  0.58085370  0.32020882  0.56637036  1.0
  O  O10  1  0.17476827  0.26732556  0.66081488  1.0
  O  O11  1  0.41912015  0.32020645  0.06636706  1.0
