# generated using pymatgen
data_BaTiCl4
_symmetry_space_group_name_H-M   'P 1'
_cell_length_a   7.27559498
_cell_length_b   6.77409601
_cell_length_c   7.04838912
_cell_angle_alpha   98.89496612
_cell_angle_beta   89.99975139
_cell_angle_gamma   89.99974711
_symmetry_Int_Tables_number   1
_chemical_formula_structural   BaTiCl4
_chemical_formula_sum   'Ba2 Ti2 Cl8'
_cell_volume   343.20610951
_cell_formula_units_Z   2
loop_
 _symmetry_equiv_pos_site_id
 _symmetry_equiv_pos_as_xyz
  1  'x, y, z'
loop_
 _atom_site_type_symbol
 _atom_site_label
 _atom_site_symmetry_multiplicity
 _atom_site_fract_x
 _atom_site_fract_y
 _atom_site_fract_z
 _atom_site_occupancy
  Ba  Ba0  1  0.77057148  0.99999973  0.74999967  1.0
  Ba  Ba1  1  0.22942836  0.00000029  0.25000044  1.0
  Ti  Ti2  1  0.34154124  0.50000104  0.75000091  1.0
  Ti  Ti3  1  0.65845917  0.49999888  0.24999907  1.0
  Cl  Cl4  1  0.55769808  0.72739713  0.00772722  1.0
  Cl  Cl5  1  0.90731138  0.73736847  0.38347351  1.0
  Cl  Cl6  1  0.44230236  0.72739639  0.50772663  1.0
  Cl  Cl7  1  0.09268994  0.73736685  0.88347215  1.0
  Cl  Cl8  1  0.90731018  0.26263311  0.11652776  1.0
  Cl  Cl9  1  0.55769750  0.27260354  0.49227329  1.0
  Cl  Cl10  1  0.09268852  0.26263187  0.61652652  1.0
  Cl  Cl11  1  0.44230180  0.27260271  0.99227284  1.0
