# generated using pymatgen
data_BaZnH4
_symmetry_space_group_name_H-M   'P 1'
_cell_length_a   5.85571965
_cell_length_b   5.28649988
_cell_length_c   5.72140808
_cell_angle_alpha   81.29836265
_cell_angle_beta   90.02892620
_cell_angle_gamma   89.98751793
_symmetry_Int_Tables_number   1
_chemical_formula_structural   BaZnH4
_chemical_formula_sum   'Ba2 Zn2 H8'
_cell_volume   175.07472052
_cell_formula_units_Z   2
loop_
 _symmetry_equiv_pos_site_id
 _symmetry_equiv_pos_as_xyz
  1  'x, y, z'
loop_
 _atom_site_type_symbol
 _atom_site_label
 _atom_site_symmetry_multiplicity
 _atom_site_fract_x
 _atom_site_fract_y
 _atom_site_fract_z
 _atom_site_occupancy
  Ba  Ba0  1  0.25606828  0.49994997  0.74995099  1.0
  Ba  Ba1  1  0.74393194  0.50005018  0.25004971  1.0
  Zn  Zn2  1  0.82685449  0.99993772  0.75006570  1.0
  Zn  Zn3  1  0.17314526  0.00006215  0.24992999  1.0
  H  H4  1  0.63883826  0.76669884  0.85954934  1.0
  H  H5  1  0.93718893  0.80191257  0.48801570  1.0
  H  H6  1  0.36116413  0.76667872  0.35965075  1.0
  H  H7  1  0.06274760  0.80186274  0.98793256  1.0
  H  H8  1  0.93725339  0.19813743  0.01206941  1.0
  H  H9  1  0.63883521  0.23332083  0.64034947  1.0
  H  H10  1  0.06281016  0.19808806  0.51198569  1.0
  H  H11  1  0.36116234  0.23330080  0.14045068  1.0
