# generated using pymatgen
data_BaZrO3
_symmetry_space_group_name_H-M   'P 1'
_cell_length_a   6.17060242
_cell_length_b   6.26505096
_cell_length_c   9.34796671
_cell_angle_alpha   89.99298870
_cell_angle_beta   90.00002241
_cell_angle_gamma   90.00000439
_symmetry_Int_Tables_number   1
_chemical_formula_structural   BaZrO3
_chemical_formula_sum   'Ba4 Zr4 O12'
_cell_volume   361.38433811
_cell_formula_units_Z   4
loop_
 _symmetry_equiv_pos_site_id
 _symmetry_equiv_pos_as_xyz
  1  'x, y, z'
loop_
 _atom_site_type_symbol
 _atom_site_label
 _atom_site_symmetry_multiplicity
 _atom_site_fract_x
 _atom_site_fract_y
 _atom_site_fract_z
 _atom_site_occupancy
  Ba  Ba0  1  0.49998953  0.49999817  0.99998874  1.0
  Ba  Ba1  1  0.00000204  0.99999628  0.49998376  1.0
  Ba  Ba2  1  0.49999938  0.49999365  0.49999183  1.0
  Ba  Ba3  1  0.00000905  0.99999557  0.99998068  1.0
  Zr  Zr4  1  0.53942663  0.97434721  0.24999081  1.0
  Zr  Zr5  1  0.96057333  0.47434722  0.24998687  1.0
  Zr  Zr6  1  0.46058415  0.02565182  0.74999306  1.0
  Zr  Zr7  1  0.03941585  0.52565178  0.74998788  1.0
  O  O8  1  0.69271510  0.28075822  0.24998738  1.0
  O  O9  1  0.80728485  0.78075821  0.24997955  1.0
  O  O10  1  0.30726630  0.71925180  0.75000525  1.0
  O  O11  1  0.19273374  0.21925183  0.74999881  1.0
  O  O12  1  0.12979604  0.36986042  0.09457505  1.0
  O  O13  1  0.37026406  0.86992833  0.40545388  1.0
  O  O14  1  0.87018964  0.63014378  0.59457771  1.0
  O  O15  1  0.62974655  0.13006663  0.90545607  1.0
  O  O16  1  0.87021462  0.63008937  0.90542551  1.0
  O  O17  1  0.62984927  0.13016650  0.59460824  1.0
  O  O18  1  0.12977460  0.36990558  0.40542489  1.0
  O  O19  1  0.37016526  0.86983766  0.09460404  1.0
