# generated using pymatgen
data_Be2NF
_symmetry_space_group_name_H-M   'P 1'
_cell_length_a   6.48728178
_cell_length_b   6.48732023
_cell_length_c   6.48729367
_cell_angle_alpha   90.00023308
_cell_angle_beta   89.99997615
_cell_angle_gamma   90.00013592
_symmetry_Int_Tables_number   1
_chemical_formula_structural   Be2NF
_chemical_formula_sum   'Be16 N8 F8'
_cell_volume   273.01823629
_cell_formula_units_Z   8
loop_
 _symmetry_equiv_pos_site_id
 _symmetry_equiv_pos_as_xyz
  1  'x, y, z'
loop_
 _atom_site_type_symbol
 _atom_site_label
 _atom_site_symmetry_multiplicity
 _atom_site_fract_x
 _atom_site_fract_y
 _atom_site_fract_z
 _atom_site_occupancy
  Be  Be0  1  0.88939540  0.61060513  0.38939392  1.0
  Be  Be1  1  0.48032032  0.21084369  0.19051463  1.0
  Be  Be2  1  0.78915097  0.69050935  0.01968324  1.0
  Be  Be3  1  0.21084855  0.19050992  0.48032166  1.0
  Be  Be4  1  0.11059002  0.11059059  0.11059099  1.0
  Be  Be5  1  0.98031788  0.28915271  0.80949047  1.0
  Be  Be6  1  0.01968246  0.78915267  0.69050641  1.0
  Be  Be7  1  0.51968022  0.71083861  0.30948378  1.0
  Be  Be8  1  0.61059998  0.38940021  0.88940235  1.0
  Be  Be9  1  0.80947997  0.98031676  0.28916799  1.0
  Be  Be10  1  0.30949059  0.51968407  0.71084455  1.0
  Be  Be11  1  0.69050802  0.01967971  0.78915270  1.0
  Be  Be12  1  0.38940619  0.88940352  0.61059538  1.0
  Be  Be13  1  0.28914261  0.80949999  0.98031419  1.0
  Be  Be14  1  0.19050893  0.48032030  0.21084669  1.0
  Be  Be15  1  0.71084882  0.30949198  0.51968017  1.0
  N  N16  1  0.02078016  0.47922055  0.52077594  1.0
  N  N17  1  0.97924114  0.97923306  0.97922798  1.0
  N  N18  1  0.47923174  0.52077107  0.02077758  1.0
  N  N19  1  0.52077914  0.02077764  0.47922590  1.0
  N  N20  1  0.24539318  0.24539165  0.24539247  1.0
  N  N21  1  0.75460794  0.74539605  0.25460594  1.0
  N  N22  1  0.25460388  0.75459848  0.74539784  1.0
  N  N23  1  0.74539276  0.25461170  0.75460995  1.0
  F  F24  1  0.00119310  0.99880431  0.49880419  1.0
  F  F25  1  0.26135655  0.73864473  0.23864469  1.0
  F  F26  1  0.76135587  0.76135572  0.76135430  1.0
  F  F27  1  0.99880450  0.49880427  0.00119422  1.0
  F  F28  1  0.50119324  0.50119479  0.50119594  1.0
  F  F29  1  0.73864692  0.23864488  0.26135629  1.0
  F  F30  1  0.49880329  0.00119473  0.99880491  1.0
  F  F31  1  0.23864564  0.26135717  0.73864274  1.0
