# generated using pymatgen
data_BeCuI4
_symmetry_space_group_name_H-M   'P 1'
_cell_length_a   6.32583043
_cell_length_b   6.94901205
_cell_length_c   7.85170709
_cell_angle_alpha   89.99840801
_cell_angle_beta   89.99757314
_cell_angle_gamma   95.47384420
_symmetry_Int_Tables_number   1
_chemical_formula_structural   BeCuI4
_chemical_formula_sum   'Be2 Cu2 I8'
_cell_volume   343.57354983
_cell_formula_units_Z   2
loop_
 _symmetry_equiv_pos_site_id
 _symmetry_equiv_pos_as_xyz
  1  'x, y, z'
loop_
 _atom_site_type_symbol
 _atom_site_label
 _atom_site_symmetry_multiplicity
 _atom_site_fract_x
 _atom_site_fract_y
 _atom_site_fract_z
 _atom_site_occupancy
  Be  Be0  1  0.00004946  0.25000672  0.13188137  1.0
  Be  Be1  1  0.99995633  0.74997920  0.86817951  1.0
  Cu  Cu2  1  0.49998409  0.24999540  0.62148663  1.0
  Cu  Cu3  1  0.50000652  0.75002260  0.37852073  1.0
  I  I4  1  0.24778842  0.08944346  0.37443233  1.0
  I  I5  1  0.75220802  0.41055612  0.37444887  1.0
  I  I6  1  0.75219910  0.91056637  0.62554421  1.0
  I  I7  1  0.24781490  0.58943275  0.62553300  1.0
  I  I8  1  0.23349430  0.07517743  0.88406852  1.0
  I  I9  1  0.76650070  0.42481458  0.88408369  1.0
  I  I10  1  0.76649041  0.92481430  0.11591603  1.0
  I  I11  1  0.23350775  0.57519107  0.11590511  1.0
