# generated using pymatgen
data_BeGeCl4
_symmetry_space_group_name_H-M   'P 1'
_cell_length_a   10.75222762
_cell_length_b   5.49747964
_cell_length_c   5.43820694
_cell_angle_alpha   102.60137212
_cell_angle_beta   90.00005446
_cell_angle_gamma   90.00016075
_symmetry_Int_Tables_number   1
_chemical_formula_structural   BeGeCl4
_chemical_formula_sum   'Be2 Ge2 Cl8'
_cell_volume   313.70992682
_cell_formula_units_Z   2
loop_
 _symmetry_equiv_pos_site_id
 _symmetry_equiv_pos_as_xyz
  1  'x, y, z'
loop_
 _atom_site_type_symbol
 _atom_site_label
 _atom_site_symmetry_multiplicity
 _atom_site_fract_x
 _atom_site_fract_y
 _atom_site_fract_z
 _atom_site_occupancy
  Be  Be0  1  0.75025753  0.99999915  0.74999350  1.0
  Be  Be1  1  0.24974250  0.00000066  0.25000679  1.0
  Ge  Ge2  1  0.29781285  0.50000204  0.75000408  1.0
  Ge  Ge3  1  0.70218722  0.49999831  0.24999540  1.0
  Cl  Cl4  1  0.13710671  0.24412145  0.50298654  1.0
  Cl  Cl5  1  0.86289255  0.24412013  0.00297979  1.0
  Cl  Cl6  1  0.64238668  0.19457814  0.56530034  1.0
  Cl  Cl7  1  0.35761277  0.19457755  0.06530597  1.0
  Cl  Cl8  1  0.64238767  0.80542220  0.93469428  1.0
  Cl  Cl9  1  0.35761292  0.80542135  0.43470011  1.0
  Cl  Cl10  1  0.13710740  0.75588004  0.99701969  1.0
  Cl  Cl11  1  0.86289321  0.75587898  0.49701351  1.0
