# generated using pymatgen
data_BeNiH4
_symmetry_space_group_name_H-M   'P 1'
_cell_length_a   4.13432087
_cell_length_b   4.29225826
_cell_length_c   4.71500996
_cell_angle_alpha   90.00339122
_cell_angle_beta   89.99837411
_cell_angle_gamma   113.31324760
_symmetry_Int_Tables_number   1
_chemical_formula_structural   BeNiH4
_chemical_formula_sum   'Be2 Ni2 H8'
_cell_volume   76.83926227
_cell_formula_units_Z   2
loop_
 _symmetry_equiv_pos_site_id
 _symmetry_equiv_pos_as_xyz
  1  'x, y, z'
loop_
 _atom_site_type_symbol
 _atom_site_label
 _atom_site_symmetry_multiplicity
 _atom_site_fract_x
 _atom_site_fract_y
 _atom_site_fract_z
 _atom_site_occupancy
  Be  Be0  1  0.99999644  0.24994730  0.87569614  1.0
  Be  Be1  1  0.00000303  0.75005397  0.12430009  1.0
  Ni  Ni2  1  0.50005191  0.24991860  0.64673289  1.0
  Ni  Ni3  1  0.49995315  0.75008696  0.35327768  1.0
  H  H4  1  0.71612802  0.01457905  0.61413487  1.0
  H  H5  1  0.28382801  0.48547722  0.61411940  1.0
  H  H6  1  0.28387434  0.98542600  0.38586679  1.0
  H  H7  1  0.71617095  0.51451277  0.38588518  1.0
  H  H8  1  0.78441945  0.97685492  0.12370507  1.0
  H  H9  1  0.21565287  0.52310511  0.12370552  1.0
  H  H10  1  0.21557661  0.02314785  0.87629143  1.0
  H  H11  1  0.78434521  0.47689026  0.87628693  1.0
