# generated using pymatgen
data_BePbBr4
_symmetry_space_group_name_H-M   'P 1'
_cell_length_a   6.08838101
_cell_length_b   7.35625307
_cell_length_c   7.60682469
_cell_angle_alpha   90.00000166
_cell_angle_beta   90.00000146
_cell_angle_gamma   89.80869463
_symmetry_Int_Tables_number   1
_chemical_formula_structural   BePbBr4
_chemical_formula_sum   'Be2 Pb2 Br8'
_cell_volume   340.69006628
_cell_formula_units_Z   2
loop_
 _symmetry_equiv_pos_site_id
 _symmetry_equiv_pos_as_xyz
  1  'x, y, z'
loop_
 _atom_site_type_symbol
 _atom_site_label
 _atom_site_symmetry_multiplicity
 _atom_site_fract_x
 _atom_site_fract_y
 _atom_site_fract_z
 _atom_site_occupancy
  Be  Be0  1  0.00000001  0.75000000  0.75068490  1.0
  Be  Be1  1  0.99999999  0.25000000  0.24931510  1.0
  Pb  Pb2  1  0.49999999  0.74999999  0.25435860  1.0
  Pb  Pb3  1  0.50000001  0.25000001  0.74564136  1.0
  Br  Br4  1  0.76518042  0.91572747  0.90773050  1.0
  Br  Br5  1  0.23481958  0.08427252  0.09226952  1.0
  Br  Br6  1  0.23481959  0.58427256  0.90773055  1.0
  Br  Br7  1  0.76518041  0.41572745  0.09226947  1.0
  Br  Br8  1  0.76470724  0.58540383  0.59082409  1.0
  Br  Br9  1  0.23529277  0.41459618  0.40917592  1.0
  Br  Br10  1  0.23529277  0.91459615  0.59082411  1.0
  Br  Br11  1  0.76470722  0.08540384  0.40917589  1.0
