# generated using pymatgen
data_BeZnI4
_symmetry_space_group_name_H-M   'P 1'
_cell_length_a   13.08644681
_cell_length_b   5.81274231
_cell_length_c   5.82072043
_cell_angle_alpha   89.97391215
_cell_angle_beta   90.00015857
_cell_angle_gamma   90.00030130
_symmetry_Int_Tables_number   1
_chemical_formula_structural   BeZnI4
_chemical_formula_sum   'Be2 Zn2 I8'
_cell_volume   442.77134848
_cell_formula_units_Z   2
loop_
 _symmetry_equiv_pos_site_id
 _symmetry_equiv_pos_as_xyz
  1  'x, y, z'
loop_
 _atom_site_type_symbol
 _atom_site_label
 _atom_site_symmetry_multiplicity
 _atom_site_fract_x
 _atom_site_fract_y
 _atom_site_fract_z
 _atom_site_occupancy
  Be  Be0  1  0.75749255  0.49999836  0.74999210  1.0
  Be  Be1  1  0.24250745  0.50000168  0.25000794  1.0
  Zn  Zn2  1  0.75682346  0.99999857  0.24999586  1.0
  Zn  Zn3  1  0.24317655  0.00000144  0.75000423  1.0
  I  I4  1  0.64156765  0.73232923  0.51686276  1.0
  I  I5  1  0.64156948  0.26766875  0.98313155  1.0
  I  I6  1  0.35843236  0.26767080  0.48313727  1.0
  I  I7  1  0.35843053  0.73233108  0.01686840  1.0
  I  I8  1  0.87242843  0.26527072  0.51714896  1.0
  I  I9  1  0.87242650  0.73472570  0.98284939  1.0
  I  I10  1  0.12757156  0.73472938  0.48285095  1.0
  I  I11  1  0.12757349  0.26527429  0.01715058  1.0
