# generated using pymatgen
data_BiCl2F
_symmetry_space_group_name_H-M   'P 1'
_cell_length_a   4.55475635
_cell_length_b   7.58133737
_cell_length_c   8.21401709
_cell_angle_alpha   86.04665061
_cell_angle_beta   89.99999996
_cell_angle_gamma   89.99999505
_symmetry_Int_Tables_number   1
_chemical_formula_structural   BiCl2F
_chemical_formula_sum   'Bi2 Cl4 F2'
_cell_volume   282.96449578
_cell_formula_units_Z   2
loop_
 _symmetry_equiv_pos_site_id
 _symmetry_equiv_pos_as_xyz
  1  'x, y, z'
loop_
 _atom_site_type_symbol
 _atom_site_label
 _atom_site_symmetry_multiplicity
 _atom_site_fract_x
 _atom_site_fract_y
 _atom_site_fract_z
 _atom_site_occupancy
  Bi  Bi0  1  0.50000000  0.50461020  0.24978077  1.0
  Bi  Bi1  1  0.50000000  0.49537942  0.75021650  1.0
  Cl  Cl2  1  0.50000003  0.25618015  0.03827645  1.0
  Cl  Cl3  1  0.49999997  0.74382227  0.96172740  1.0
  Cl  Cl4  1  0.49999995  0.74423056  0.50797646  1.0
  Cl  Cl5  1  0.50000005  0.25577641  0.49201957  1.0
  F  F6  1  0.00000000  0.50864932  0.24846502  1.0
  F  F7  1  0.00000000  0.49135167  0.75153783  1.0
