# generated using pymatgen
data_BiClF2
_symmetry_space_group_name_H-M   'P 1'
_cell_length_a   3.45677035
_cell_length_b   7.57967415
_cell_length_c   8.20120141
_cell_angle_alpha   79.56807124
_cell_angle_beta   89.99997653
_cell_angle_gamma   89.99996780
_symmetry_Int_Tables_number   1
_chemical_formula_structural   BiClF2
_chemical_formula_sum   'Bi2 Cl2 F4'
_cell_volume   211.32942770
_cell_formula_units_Z   2
loop_
 _symmetry_equiv_pos_site_id
 _symmetry_equiv_pos_as_xyz
  1  'x, y, z'
loop_
 _atom_site_type_symbol
 _atom_site_label
 _atom_site_symmetry_multiplicity
 _atom_site_fract_x
 _atom_site_fract_y
 _atom_site_fract_z
 _atom_site_occupancy
  Bi  Bi0  1  0.00000009  0.82839139  0.29259251  1.0
  Bi  Bi1  1  0.99999992  0.17160861  0.70740749  1.0
  Cl  Cl2  1  0.49999998  0.59270659  0.19113877  1.0
  Cl  Cl3  1  0.50000001  0.40729341  0.80886123  1.0
  F  F4  1  0.49999956  0.01222131  0.17378224  1.0
  F  F5  1  0.50000044  0.98777869  0.82621776  1.0
  F  F6  1  0.49999946  0.80216009  0.48735388  1.0
  F  F7  1  0.50000054  0.19783991  0.51264612  1.0
