# generated using pymatgen
data_BiHF2
_symmetry_space_group_name_H-M   'P 1'
_cell_length_a   6.07926880
_cell_length_b   5.62108671
_cell_length_c   4.67686740
_cell_angle_alpha   118.30571230
_cell_angle_beta   89.56097567
_cell_angle_gamma   101.72828102
_symmetry_Int_Tables_number   1
_chemical_formula_structural   BiHF2
_chemical_formula_sum   'Bi2 H2 F4'
_cell_volume   137.03961927
_cell_formula_units_Z   2
loop_
 _symmetry_equiv_pos_site_id
 _symmetry_equiv_pos_as_xyz
  1  'x, y, z'
loop_
 _atom_site_type_symbol
 _atom_site_label
 _atom_site_symmetry_multiplicity
 _atom_site_fract_x
 _atom_site_fract_y
 _atom_site_fract_z
 _atom_site_occupancy
  Bi  Bi0  1  0.24749340  0.21527594  0.90486009  1.0
  Bi  Bi1  1  0.75250676  0.78472419  0.09513968  1.0
  H  H2  1  0.87688221  0.50390709  0.80463948  1.0
  H  H3  1  0.12311717  0.49609238  0.19535960  1.0
  F  F4  1  0.14272100  0.05070918  0.26956113  1.0
  F  F5  1  0.41273120  0.57970383  0.80107862  1.0
  F  F6  1  0.58726818  0.42029598  0.19892201  1.0
  F  F7  1  0.85728009  0.94929140  0.73043939  1.0
