# generated using pymatgen
data_Ca2NCl
_symmetry_space_group_name_H-M   'P 1'
_cell_length_a   4.60957835
_cell_length_b   4.60957955
_cell_length_c   4.60958000
_cell_angle_alpha   59.99997061
_cell_angle_beta   59.99995952
_cell_angle_gamma   59.99995436
_symmetry_Int_Tables_number   1
_chemical_formula_structural   Ca2NCl
_chemical_formula_sum   'Ca2 N1 Cl1'
_cell_volume   69.25776861
_cell_formula_units_Z   1
loop_
 _symmetry_equiv_pos_site_id
 _symmetry_equiv_pos_as_xyz
  1  'x, y, z'
loop_
 _atom_site_type_symbol
 _atom_site_label
 _atom_site_symmetry_multiplicity
 _atom_site_fract_x
 _atom_site_fract_y
 _atom_site_fract_z
 _atom_site_occupancy
  Ca  Ca0  1  0.74999988  0.74999997  0.75000000  1.0
  Ca  Ca1  1  0.25000013  0.25000003  0.25000000  1.0
  N  N2  1  0.99999999  0.99999999  0.99999999  1.0
  Cl  Cl3  1  0.50000000  0.50000000  0.50000000  1.0
