# generated using pymatgen
data_Ca2PF
_symmetry_space_group_name_H-M   'P 1'
_cell_length_a   4.77722934
_cell_length_b   4.77722918
_cell_length_c   4.77722934
_cell_angle_alpha   59.99981335
_cell_angle_beta   59.99981388
_cell_angle_gamma   59.99981558
_symmetry_Int_Tables_number   1
_chemical_formula_structural   Ca2PF
_chemical_formula_sum   'Ca2 P1 F1'
_cell_volume   77.09237612
_cell_formula_units_Z   1
loop_
 _symmetry_equiv_pos_site_id
 _symmetry_equiv_pos_as_xyz
  1  'x, y, z'
loop_
 _atom_site_type_symbol
 _atom_site_label
 _atom_site_symmetry_multiplicity
 _atom_site_fract_x
 _atom_site_fract_y
 _atom_site_fract_z
 _atom_site_occupancy
  Ca  Ca0  1  0.74999992  0.74999991  0.74999991  1.0
  Ca  Ca1  1  0.25000008  0.25000009  0.25000008  1.0
  P  P2  1  0.50000000  0.50000001  0.49999999  1.0
  F  F3  1  0.00000000  0.99999999  0.00000001  1.0
