# generated using pymatgen
data_Ca2TeS
_symmetry_space_group_name_H-M   'P 1'
_cell_length_a   5.27744693
_cell_length_b   5.27744684
_cell_length_c   5.27744689
_cell_angle_alpha   59.99995127
_cell_angle_beta   59.99995223
_cell_angle_gamma   59.99995185
_symmetry_Int_Tables_number   1
_chemical_formula_structural   Ca2TeS
_chemical_formula_sum   'Ca2 Te1 S1'
_cell_volume   103.93364080
_cell_formula_units_Z   1
loop_
 _symmetry_equiv_pos_site_id
 _symmetry_equiv_pos_as_xyz
  1  'x, y, z'
loop_
 _atom_site_type_symbol
 _atom_site_label
 _atom_site_symmetry_multiplicity
 _atom_site_fract_x
 _atom_site_fract_y
 _atom_site_fract_z
 _atom_site_occupancy
  Ca  Ca0  1  0.74999993  0.74999998  0.74999994  1.0
  Ca  Ca1  1  0.25000006  0.25000003  0.25000007  1.0
  Te  Te2  1  0.49999999  0.50000000  0.50000000  1.0
  S  S3  1  0.00000001  0.99999999  0.99999999  1.0
