# generated using pymatgen
data_CaCuI4
_symmetry_space_group_name_H-M   'P 1'
_cell_length_a   6.95688203
_cell_length_b   8.11451579
_cell_length_c   7.96301610
_cell_angle_alpha   90.00020768
_cell_angle_beta   89.99998649
_cell_angle_gamma   99.76222395
_symmetry_Int_Tables_number   1
_chemical_formula_structural   CaCuI4
_chemical_formula_sum   'Ca2 Cu2 I8'
_cell_volume   443.01684851
_cell_formula_units_Z   2
loop_
 _symmetry_equiv_pos_site_id
 _symmetry_equiv_pos_as_xyz
  1  'x, y, z'
loop_
 _atom_site_type_symbol
 _atom_site_label
 _atom_site_symmetry_multiplicity
 _atom_site_fract_x
 _atom_site_fract_y
 _atom_site_fract_z
 _atom_site_occupancy
  Ca  Ca0  1  0.00000067  0.25000045  0.17095098  1.0
  Ca  Ca1  1  0.99999929  0.74999955  0.82904922  1.0
  Cu  Cu2  1  0.50000313  0.24999848  0.63195148  1.0
  Cu  Cu3  1  0.49999736  0.75000132  0.36805761  1.0
  I  I4  1  0.27437195  0.08021294  0.39990572  1.0
  I  I5  1  0.72562883  0.41978623  0.39990622  1.0
  I  I6  1  0.72563124  0.91979486  0.60008879  1.0
  I  I7  1  0.27436795  0.58020633  0.60008840  1.0
  I  I8  1  0.25559379  0.10538520  0.88110983  1.0
  I  I9  1  0.74440697  0.39461424  0.88111057  1.0
  I  I10  1  0.74440207  0.89461859  0.11889105  1.0
  I  I11  1  0.25559676  0.60538181  0.11889013  1.0
