# generated using pymatgen
data_CaEuCl4
_symmetry_space_group_name_H-M   'P 1'
_cell_length_a   6.87976243
_cell_length_b   7.02949692
_cell_length_c   7.14836105
_cell_angle_alpha   89.99999089
_cell_angle_beta   89.99994620
_cell_angle_gamma   98.12187590
_symmetry_Int_Tables_number   1
_chemical_formula_structural   CaEuCl4
_chemical_formula_sum   'Ca2 Eu2 Cl8'
_cell_volume   342.23632799
_cell_formula_units_Z   2
loop_
 _symmetry_equiv_pos_site_id
 _symmetry_equiv_pos_as_xyz
  1  'x, y, z'
loop_
 _atom_site_type_symbol
 _atom_site_label
 _atom_site_symmetry_multiplicity
 _atom_site_fract_x
 _atom_site_fract_y
 _atom_site_fract_z
 _atom_site_occupancy
  Ca  Ca0  1  0.49999996  0.25000078  0.68011057  1.0
  Ca  Ca1  1  0.49999991  0.75000037  0.31988970  1.0
  Eu  Eu2  1  0.99999956  0.74999990  0.77427461  1.0
  Eu  Eu3  1  0.00000054  0.24999979  0.22572580  1.0
  Cl  Cl4  1  0.74873545  0.99744219  0.55828045  1.0
  Cl  Cl5  1  0.25126413  0.50255910  0.55828075  1.0
  Cl  Cl6  1  0.25126524  0.00255978  0.44171877  1.0
  Cl  Cl7  1  0.74873587  0.49744196  0.44172002  1.0
  Cl  Cl8  1  0.23925262  0.58827803  0.06547497  1.0
  Cl  Cl9  1  0.76074827  0.91172100  0.06547510  1.0
  Cl  Cl10  1  0.76074820  0.41172048  0.93452545  1.0
  Cl  Cl11  1  0.23925326  0.08827761  0.93452583  1.0
