# generated using pymatgen
data_CaGeBr4
_symmetry_space_group_name_H-M   'P 1'
_cell_length_a   8.07049727
_cell_length_b   6.67600127
_cell_length_c   7.23200305
_cell_angle_alpha   91.18091698
_cell_angle_beta   89.99999849
_cell_angle_gamma   90.00000070
_symmetry_Int_Tables_number   1
_chemical_formula_structural   CaGeBr4
_chemical_formula_sum   'Ca2 Ge2 Br8'
_cell_volume   389.56780075
_cell_formula_units_Z   2
loop_
 _symmetry_equiv_pos_site_id
 _symmetry_equiv_pos_as_xyz
  1  'x, y, z'
loop_
 _atom_site_type_symbol
 _atom_site_label
 _atom_site_symmetry_multiplicity
 _atom_site_fract_x
 _atom_site_fract_y
 _atom_site_fract_z
 _atom_site_occupancy
  Ca  Ca0  1  0.85203607  0.99999997  0.75000003  1.0
  Ca  Ca1  1  0.14796375  0.00000002  0.24999997  1.0
  Ge  Ge2  1  0.36181995  0.50000000  0.75000012  1.0
  Ge  Ge3  1  0.63818087  0.50000000  0.24999988  1.0
  Br  Br4  1  0.11334331  0.24089745  0.58479744  1.0
  Br  Br5  1  0.88665653  0.24089752  0.08479747  1.0
  Br  Br6  1  0.60461342  0.26575045  0.57288899  1.0
  Br  Br7  1  0.39538644  0.26575050  0.07288917  1.0
  Br  Br8  1  0.60461340  0.73424954  0.92711099  1.0
  Br  Br9  1  0.39538643  0.73424952  0.42711085  1.0
  Br  Br10  1  0.11334330  0.75910251  0.91520253  1.0
  Br  Br11  1  0.88665652  0.75910253  0.41520256  1.0
