# generated using pymatgen
data_CaPtCl4
_symmetry_space_group_name_H-M   'P 1'
_cell_length_a   7.28663030
_cell_length_b   6.06825398
_cell_length_c   6.84105305
_cell_angle_alpha   94.07383403
_cell_angle_beta   89.99999878
_cell_angle_gamma   90.00000250
_symmetry_Int_Tables_number   1
_chemical_formula_structural   CaPtCl4
_chemical_formula_sum   'Ca2 Pt2 Cl8'
_cell_volume   301.72738984
_cell_formula_units_Z   2
loop_
 _symmetry_equiv_pos_site_id
 _symmetry_equiv_pos_as_xyz
  1  'x, y, z'
loop_
 _atom_site_type_symbol
 _atom_site_label
 _atom_site_symmetry_multiplicity
 _atom_site_fract_x
 _atom_site_fract_y
 _atom_site_fract_z
 _atom_site_occupancy
  Ca  Ca0  1  0.83866936  0.00000002  0.75000002  1.0
  Ca  Ca1  1  0.16134884  0.99999998  0.24999998  1.0
  Pt  Pt2  1  0.36274056  0.50000000  0.74999998  1.0
  Pt  Pt3  1  0.63726470  0.50000000  0.25000002  1.0
  Cl  Cl4  1  0.59988044  0.72557481  0.93394407  1.0
  Cl  Cl5  1  0.88285969  0.74616586  0.40682958  1.0
  Cl  Cl6  1  0.40009183  0.72560455  0.43399138  1.0
  Cl  Cl7  1  0.11715633  0.74610551  0.90682337  1.0
  Cl  Cl8  1  0.88285969  0.25383414  0.09317051  1.0
  Cl  Cl9  1  0.59988043  0.27442517  0.56605597  1.0
  Cl  Cl10  1  0.11715632  0.25389450  0.59317655  1.0
  Cl  Cl11  1  0.40009181  0.27439546  0.06600858  1.0
