# generated using pymatgen
data_CaReBr4
_symmetry_space_group_name_H-M   'P 1'
_cell_length_a   9.26524144
_cell_length_b   6.55841197
_cell_length_c   7.00379408
_cell_angle_alpha   82.62539256
_cell_angle_beta   89.99999861
_cell_angle_gamma   89.99999627
_symmetry_Int_Tables_number   1
_chemical_formula_structural   CaReBr4
_chemical_formula_sum   'Ca2 Re2 Br8'
_cell_volume   422.06704330
_cell_formula_units_Z   2
loop_
 _symmetry_equiv_pos_site_id
 _symmetry_equiv_pos_as_xyz
  1  'x, y, z'
loop_
 _atom_site_type_symbol
 _atom_site_label
 _atom_site_symmetry_multiplicity
 _atom_site_fract_x
 _atom_site_fract_y
 _atom_site_fract_z
 _atom_site_occupancy
  Ca  Ca0  1  0.87143704  0.99999986  0.75000013  1.0
  Ca  Ca1  1  0.12856287  0.00000022  0.24999994  1.0
  Re  Re2  1  0.29807819  0.50000003  0.74999986  1.0
  Re  Re3  1  0.70192212  0.50000004  0.25000018  1.0
  Br  Br4  1  0.64029276  0.75064946  0.96073304  1.0
  Br  Br5  1  0.89412963  0.75103735  0.43857180  1.0
  Br  Br6  1  0.35970715  0.75064959  0.46073274  1.0
  Br  Br7  1  0.10587032  0.75103728  0.93857178  1.0
  Br  Br8  1  0.89412966  0.24896286  0.06142819  1.0
  Br  Br9  1  0.64029282  0.24935046  0.53926719  1.0
  Br  Br10  1  0.10587025  0.24896258  0.56142828  1.0
  Br  Br11  1  0.35970720  0.24935027  0.03926687  1.0
