# generated using pymatgen
data_CaSmI4
_symmetry_space_group_name_H-M   'P 1'
_cell_length_a   7.74768794
_cell_length_b   7.90779557
_cell_length_c   7.90198984
_cell_angle_alpha   90.00000029
_cell_angle_beta   90.00018772
_cell_angle_gamma   103.17601912
_symmetry_Int_Tables_number   1
_chemical_formula_structural   CaSmI4
_chemical_formula_sum   'Ca2 Sm2 I8'
_cell_volume   471.38718186
_cell_formula_units_Z   2
loop_
 _symmetry_equiv_pos_site_id
 _symmetry_equiv_pos_as_xyz
  1  'x, y, z'
loop_
 _atom_site_type_symbol
 _atom_site_label
 _atom_site_symmetry_multiplicity
 _atom_site_fract_x
 _atom_site_fract_y
 _atom_site_fract_z
 _atom_site_occupancy
  Ca  Ca0  1  0.49999948  0.24999938  0.66266421  1.0
  Ca  Ca1  1  0.50000041  0.75000052  0.33733585  1.0
  Sm  Sm2  1  0.99999992  0.75000112  0.76501026  1.0
  Sm  Sm3  1  0.00000011  0.24999896  0.23498960  1.0
  I  I4  1  0.77109357  0.01991185  0.56366072  1.0
  I  I5  1  0.22890629  0.48008856  0.56366121  1.0
  I  I6  1  0.22890692  0.98008834  0.43633922  1.0
  I  I7  1  0.77109308  0.51991132  0.43633896  1.0
  I  I8  1  0.23242171  0.59603423  0.05761930  1.0
  I  I9  1  0.76757867  0.90396627  0.05761961  1.0
  I  I10  1  0.76757870  0.40396585  0.94238047  1.0
  I  I11  1  0.23242114  0.09603360  0.94238059  1.0
