# generated using pymatgen
data_CaSmH4
_symmetry_space_group_name_H-M   'P 1'
_cell_length_a   5.38244273
_cell_length_b   5.39970550
_cell_length_c   5.39275890
_cell_angle_alpha   89.91827827
_cell_angle_beta   90.00000150
_cell_angle_gamma   90.00000675
_symmetry_Int_Tables_number   1
_chemical_formula_structural   CaSmH4
_chemical_formula_sum   'Ca2 Sm2 H8'
_cell_volume   156.73285841
_cell_formula_units_Z   2
loop_
 _symmetry_equiv_pos_site_id
 _symmetry_equiv_pos_as_xyz
  1  'x, y, z'
loop_
 _atom_site_type_symbol
 _atom_site_label
 _atom_site_symmetry_multiplicity
 _atom_site_fract_x
 _atom_site_fract_y
 _atom_site_fract_z
 _atom_site_occupancy
  Ca  Ca0  1  0.75086187  0.99999994  0.75000001  1.0
  Ca  Ca1  1  0.24913824  0.00000007  0.25000000  1.0
  Sm  Sm2  1  0.25038596  0.50000000  0.75000000  1.0
  Sm  Sm3  1  0.74961404  0.49999999  0.25000000  1.0
  H  H4  1  0.49963368  0.74725032  0.99913829  1.0
  H  H5  1  0.99899546  0.74607743  0.50167037  1.0
  H  H6  1  0.50036630  0.74725035  0.49913829  1.0
  H  H7  1  0.00100451  0.74607729  0.00167035  1.0
  H  H8  1  0.99899547  0.25392263  0.99832962  1.0
  H  H9  1  0.49963371  0.25274967  0.50086172  1.0
  H  H10  1  0.00100449  0.25392267  0.49832964  1.0
  H  H11  1  0.50036627  0.25274963  0.00086172  1.0
