# generated using pymatgen
data_CaTiBr4
_symmetry_space_group_name_H-M   'P 1'
_cell_length_a   7.91591411
_cell_length_b   6.45049916
_cell_length_c   7.06627255
_cell_angle_alpha   91.90345818
_cell_angle_beta   90.00023611
_cell_angle_gamma   89.99923205
_symmetry_Int_Tables_number   1
_chemical_formula_structural   CaTiBr4
_chemical_formula_sum   'Ca2 Ti2 Br8'
_cell_volume   360.61607033
_cell_formula_units_Z   2
loop_
 _symmetry_equiv_pos_site_id
 _symmetry_equiv_pos_as_xyz
  1  'x, y, z'
loop_
 _atom_site_type_symbol
 _atom_site_label
 _atom_site_symmetry_multiplicity
 _atom_site_fract_x
 _atom_site_fract_y
 _atom_site_fract_z
 _atom_site_occupancy
  Ca  Ca0  1  0.85233584  0.99999017  0.74998945  1.0
  Ca  Ca1  1  0.14766463  0.99999659  0.24998955  1.0
  Ti  Ti2  1  0.37326905  0.49999785  0.74999942  1.0
  Ti  Ti3  1  0.62673123  0.50000857  0.25000405  1.0
  Br  Br4  1  0.60957062  0.72751086  0.93411964  1.0
  Br  Br5  1  0.87357601  0.74833180  0.40572183  1.0
  Br  Br6  1  0.39042295  0.72751525  0.43412352  1.0
  Br  Br7  1  0.12642409  0.74833451  0.90573252  1.0
  Br  Br8  1  0.87354443  0.25163057  0.09425613  1.0
  Br  Br9  1  0.60960457  0.27251992  0.56589977  1.0
  Br  Br10  1  0.12645959  0.25163812  0.59427058  1.0
  Br  Br11  1  0.39039699  0.27252578  0.06589354  1.0
