# generated using pymatgen
data_CaZnI4
_symmetry_space_group_name_H-M   'P 1'
_cell_length_a   10.51938826
_cell_length_b   6.85576589
_cell_length_c   7.23148641
_cell_angle_alpha   81.22495825
_cell_angle_beta   89.99988722
_cell_angle_gamma   90.00005025
_symmetry_Int_Tables_number   1
_chemical_formula_structural   CaZnI4
_chemical_formula_sum   'Ca2 Zn2 I8'
_cell_volume   515.41921481
_cell_formula_units_Z   2
loop_
 _symmetry_equiv_pos_site_id
 _symmetry_equiv_pos_as_xyz
  1  'x, y, z'
loop_
 _atom_site_type_symbol
 _atom_site_label
 _atom_site_symmetry_multiplicity
 _atom_site_fract_x
 _atom_site_fract_y
 _atom_site_fract_z
 _atom_site_occupancy
  Ca  Ca0  1  0.85126744  0.99999974  0.25000140  1.0
  Ca  Ca1  1  0.14873345  0.00000023  0.74999861  1.0
  Zn  Zn2  1  0.76109553  0.50000096  0.75000077  1.0
  Zn  Zn3  1  0.23890451  0.49999904  0.24999921  1.0
  I  I4  1  0.64556903  0.73410964  0.48543932  1.0
  I  I5  1  0.64556900  0.26589027  0.01456253  1.0
  I  I6  1  0.35443058  0.26589163  0.51455982  1.0
  I  I7  1  0.35443063  0.73410849  0.98543835  1.0
  I  I8  1  0.90583676  0.25566724  0.56532809  1.0
  I  I9  1  0.90583711  0.74433386  0.93467245  1.0
  I  I10  1  0.09416317  0.74433296  0.43467198  1.0
  I  I11  1  0.09416280  0.25566594  0.06532747  1.0
