# generated using pymatgen
data_CdCuCl4
_symmetry_space_group_name_H-M   'P 1'
_cell_length_a   5.93588105
_cell_length_b   6.85259314
_cell_length_c   6.91447997
_cell_angle_alpha   90.00000617
_cell_angle_beta   90.00000787
_cell_angle_gamma   99.56395097
_symmetry_Int_Tables_number   1
_chemical_formula_structural   CdCuCl4
_chemical_formula_sum   'Cd2 Cu2 Cl8'
_cell_volume   277.34539338
_cell_formula_units_Z   2
loop_
 _symmetry_equiv_pos_site_id
 _symmetry_equiv_pos_as_xyz
  1  'x, y, z'
loop_
 _atom_site_type_symbol
 _atom_site_label
 _atom_site_symmetry_multiplicity
 _atom_site_fract_x
 _atom_site_fract_y
 _atom_site_fract_z
 _atom_site_occupancy
  Cd  Cd0  1  0.99999990  0.25000008  0.17836967  1.0
  Cd  Cd1  1  0.00000012  0.74999993  0.82162877  1.0
  Cu  Cu2  1  0.49999972  0.25000006  0.63547125  1.0
  Cu  Cu3  1  0.50000027  0.74999995  0.36453312  1.0
  Cl  Cl4  1  0.26939004  0.08399538  0.40176476  1.0
  Cl  Cl5  1  0.73060979  0.41600450  0.40176499  1.0
  Cl  Cl6  1  0.73061384  0.91600655  0.59823577  1.0
  Cl  Cl7  1  0.26938631  0.58399353  0.59823550  1.0
  Cl  Cl8  1  0.25395690  0.09904754  0.87976193  1.0
  Cl  Cl9  1  0.74604298  0.40095252  0.87976194  1.0
  Cl  Cl10  1  0.74604295  0.90095205  0.12023616  1.0
  Cl  Cl11  1  0.25395718  0.59904790  0.12023614  1.0
