# generated using pymatgen
data_CdCuBr4
_symmetry_space_group_name_H-M   'P 1'
_cell_length_a   6.30678162
_cell_length_b   7.26998725
_cell_length_c   7.23615953
_cell_angle_alpha   89.99999677
_cell_angle_beta   90.00001628
_cell_angle_gamma   99.26503915
_symmetry_Int_Tables_number   1
_chemical_formula_structural   CdCuBr4
_chemical_formula_sum   'Cd2 Cu2 Br8'
_cell_volume   327.45117159
_cell_formula_units_Z   2
loop_
 _symmetry_equiv_pos_site_id
 _symmetry_equiv_pos_as_xyz
  1  'x, y, z'
loop_
 _atom_site_type_symbol
 _atom_site_label
 _atom_site_symmetry_multiplicity
 _atom_site_fract_x
 _atom_site_fract_y
 _atom_site_fract_z
 _atom_site_occupancy
  Cd  Cd0  1  0.00000004  0.24999995  0.18039240  1.0
  Cd  Cd1  1  0.99999997  0.75000006  0.81960583  1.0
  Cu  Cu2  1  0.49999989  0.24999981  0.63672341  1.0
  Cu  Cu3  1  0.50000010  0.75000016  0.36327475  1.0
  Br  Br4  1  0.26983457  0.08303210  0.39730216  1.0
  Br  Br5  1  0.73016554  0.41696804  0.39730214  1.0
  Br  Br6  1  0.73017657  0.91697374  0.60270533  1.0
  Br  Br7  1  0.26982335  0.58302613  0.60270535  1.0
  Br  Br8  1  0.25331018  0.10016720  0.88182754  1.0
  Br  Br9  1  0.74668989  0.39983290  0.88182761  1.0
  Br  Br10  1  0.74669121  0.89983365  0.11816677  1.0
  Br  Br11  1  0.25330871  0.60016626  0.11816671  1.0
