# generated using pymatgen
data_CdFeF4
_symmetry_space_group_name_H-M   'P 1'
_cell_length_a   6.02885933
_cell_length_b   5.18120134
_cell_length_c   5.45530251
_cell_angle_alpha   87.99700151
_cell_angle_beta   90.01983514
_cell_angle_gamma   90.00490075
_symmetry_Int_Tables_number   1
_chemical_formula_structural   CdFeF4
_chemical_formula_sum   'Cd2 Fe2 F8'
_cell_volume   170.30170485
_cell_formula_units_Z   2
loop_
 _symmetry_equiv_pos_site_id
 _symmetry_equiv_pos_as_xyz
  1  'x, y, z'
loop_
 _atom_site_type_symbol
 _atom_site_label
 _atom_site_symmetry_multiplicity
 _atom_site_fract_x
 _atom_site_fract_y
 _atom_site_fract_z
 _atom_site_occupancy
  Cd  Cd0  1  0.68070369  0.49999142  0.25002216  1.0
  Cd  Cd1  1  0.31929668  0.50003597  0.74998672  1.0
  Fe  Fe2  1  0.16001618  0.99999613  0.24999201  1.0
  Fe  Fe3  1  0.83998411  0.00003502  0.74991965  1.0
  F  F4  1  0.09908837  0.78020387  0.94440798  1.0
  F  F5  1  0.09913839  0.21979546  0.55546581  1.0
  F  F6  1  0.90083157  0.21977550  0.05559940  1.0
  F  F7  1  0.90094042  0.78018219  0.44453979  1.0
  F  F8  1  0.38383694  0.73378037  0.40095381  1.0
  F  F9  1  0.38383480  0.26620060  0.09898246  1.0
  F  F10  1  0.61618143  0.26621143  0.59907975  1.0
  F  F11  1  0.61614742  0.73379205  0.90105047  1.0
