# generated using pymatgen
data_CdMoF4
_symmetry_space_group_name_H-M   'P 1'
_cell_length_a   6.65332542
_cell_length_b   5.50586984
_cell_length_c   5.61986150
_cell_angle_alpha   89.45106414
_cell_angle_beta   89.99972118
_cell_angle_gamma   90.00022249
_symmetry_Int_Tables_number   1
_chemical_formula_structural   CdMoF4
_chemical_formula_sum   'Cd2 Mo2 F8'
_cell_volume   205.85925005
_cell_formula_units_Z   2
loop_
 _symmetry_equiv_pos_site_id
 _symmetry_equiv_pos_as_xyz
  1  'x, y, z'
loop_
 _atom_site_type_symbol
 _atom_site_label
 _atom_site_symmetry_multiplicity
 _atom_site_fract_x
 _atom_site_fract_y
 _atom_site_fract_z
 _atom_site_occupancy
  Cd  Cd0  1  0.59190036  0.50000061  0.25000338  1.0
  Cd  Cd1  1  0.40809964  0.49999938  0.74999661  1.0
  Mo  Mo2  1  0.12670395  0.00000081  0.24999954  1.0
  Mo  Mo3  1  0.87329605  0.99999919  0.75000046  1.0
  F  F4  1  0.10113860  0.79456736  0.93370522  1.0
  F  F5  1  0.10113837  0.20543292  0.56629477  1.0
  F  F6  1  0.89886140  0.20543263  0.06629479  1.0
  F  F7  1  0.89886164  0.79456708  0.43370524  1.0
  F  F8  1  0.33434550  0.78630829  0.42134502  1.0
  F  F9  1  0.33434723  0.21369539  0.07865232  1.0
  F  F10  1  0.66565452  0.21369174  0.57865499  1.0
  F  F11  1  0.66565276  0.78630460  0.92134766  1.0
