# generated using pymatgen
data_CdPbF4
_symmetry_space_group_name_H-M   'P 1'
_cell_length_a   5.77521673
_cell_length_b   5.93362603
_cell_length_c   5.95133963
_cell_angle_alpha   90.00000481
_cell_angle_beta   90.00000059
_cell_angle_gamma   96.23993165
_symmetry_Int_Tables_number   1
_chemical_formula_structural   CdPbF4
_chemical_formula_sum   'Cd2 Pb2 F8'
_cell_volume   202.73211134
_cell_formula_units_Z   2
loop_
 _symmetry_equiv_pos_site_id
 _symmetry_equiv_pos_as_xyz
  1  'x, y, z'
loop_
 _atom_site_type_symbol
 _atom_site_label
 _atom_site_symmetry_multiplicity
 _atom_site_fract_x
 _atom_site_fract_y
 _atom_site_fract_z
 _atom_site_occupancy
  Cd  Cd0  1  0.99999999  0.74999995  0.80657663  1.0
  Cd  Cd1  1  0.00000001  0.25000005  0.19342340  1.0
  Pb  Pb2  1  0.50000000  0.74999997  0.26872689  1.0
  Pb  Pb3  1  0.50000000  0.25000003  0.73127310  1.0
  F  F4  1  0.76542424  0.00095629  0.95535249  1.0
  F  F5  1  0.23457584  0.99904372  0.04464749  1.0
  F  F6  1  0.23457577  0.49904378  0.95535258  1.0
  F  F7  1  0.76542419  0.50095623  0.04464742  1.0
  F  F8  1  0.74125223  0.58757832  0.56174825  1.0
  F  F9  1  0.25874775  0.41242167  0.43825177  1.0
  F  F10  1  0.25874774  0.91242168  0.56174824  1.0
  F  F11  1  0.74125227  0.08757830  0.43825176  1.0
