# generated using pymatgen
data_CdPbBr4
_symmetry_space_group_name_H-M   'P 1'
_cell_length_a   8.15491002
_cell_length_b   6.79655695
_cell_length_c   7.40278985
_cell_angle_alpha   92.94907307
_cell_angle_beta   90.00000312
_cell_angle_gamma   89.99999834
_symmetry_Int_Tables_number   1
_chemical_formula_structural   CdPbBr4
_chemical_formula_sum   'Cd2 Pb2 Br8'
_cell_volume   409.75854528
_cell_formula_units_Z   2
loop_
 _symmetry_equiv_pos_site_id
 _symmetry_equiv_pos_as_xyz
  1  'x, y, z'
loop_
 _atom_site_type_symbol
 _atom_site_label
 _atom_site_symmetry_multiplicity
 _atom_site_fract_x
 _atom_site_fract_y
 _atom_site_fract_z
 _atom_site_occupancy
  Cd  Cd0  1  0.63219246  0.49999992  0.24999996  1.0
  Cd  Cd1  1  0.36780752  0.50000005  0.75000002  1.0
  Pb  Pb2  1  0.15512629  0.00000003  0.25000010  1.0
  Pb  Pb3  1  0.84487371  0.99999988  0.75000000  1.0
  Br  Br4  1  0.11413817  0.74476654  0.90222395  1.0
  Br  Br5  1  0.11413813  0.25523347  0.59777617  1.0
  Br  Br6  1  0.88586187  0.25523348  0.09777605  1.0
  Br  Br7  1  0.88586180  0.74476654  0.40222378  1.0
  Br  Br8  1  0.39883530  0.73026301  0.44361353  1.0
  Br  Br9  1  0.39883529  0.26973695  0.05638639  1.0
  Br  Br10  1  0.60116478  0.26973705  0.55638647  1.0
  Br  Br11  1  0.60116468  0.73026307  0.94361359  1.0
