# generated using pymatgen
data_CdPbCl4
_symmetry_space_group_name_H-M   'P 1'
_cell_length_a   6.63362152
_cell_length_b   7.08260289
_cell_length_c   7.13099960
_cell_angle_alpha   90.00000788
_cell_angle_beta   90.00001453
_cell_angle_gamma   91.42253474
_symmetry_Int_Tables_number   1
_chemical_formula_structural   CdPbCl4
_chemical_formula_sum   'Cd2 Pb2 Cl8'
_cell_volume   334.93468542
_cell_formula_units_Z   2
loop_
 _symmetry_equiv_pos_site_id
 _symmetry_equiv_pos_as_xyz
  1  'x, y, z'
loop_
 _atom_site_type_symbol
 _atom_site_label
 _atom_site_symmetry_multiplicity
 _atom_site_fract_x
 _atom_site_fract_y
 _atom_site_fract_z
 _atom_site_occupancy
  Cd  Cd0  1  0.00000006  0.75000025  0.76613502  1.0
  Cd  Cd1  1  0.99999993  0.24999980  0.23386476  1.0
  Pb  Pb2  1  0.49999987  0.74999990  0.25675911  1.0
  Pb  Pb3  1  0.50000014  0.25000010  0.74324188  1.0
  Cl  Cl4  1  0.74690647  0.94814814  0.93910676  1.0
  Cl  Cl5  1  0.25309357  0.05185183  0.06089305  1.0
  Cl  Cl6  1  0.25309345  0.55185185  0.93910662  1.0
  Cl  Cl7  1  0.74690641  0.44814809  0.06089316  1.0
  Cl  Cl8  1  0.74648838  0.56510984  0.56475462  1.0
  Cl  Cl9  1  0.25351178  0.43489000  0.43524517  1.0
  Cl  Cl10  1  0.25351167  0.93489023  0.56475455  1.0
  Cl  Cl11  1  0.74648827  0.06510998  0.43524530  1.0
