# generated using pymatgen
data_CdSnCl4
_symmetry_space_group_name_H-M   'P 1'
_cell_length_a   7.61590980
_cell_length_b   6.47988200
_cell_length_c   6.97919773
_cell_angle_alpha   86.49473885
_cell_angle_beta   89.99999046
_cell_angle_gamma   90.00001228
_symmetry_Int_Tables_number   1
_chemical_formula_structural   CdSnCl4
_chemical_formula_sum   'Cd2 Sn2 Cl8'
_cell_volume   343.78042781
_cell_formula_units_Z   2
loop_
 _symmetry_equiv_pos_site_id
 _symmetry_equiv_pos_as_xyz
  1  'x, y, z'
loop_
 _atom_site_type_symbol
 _atom_site_label
 _atom_site_symmetry_multiplicity
 _atom_site_fract_x
 _atom_site_fract_y
 _atom_site_fract_z
 _atom_site_occupancy
  Cd  Cd0  1  0.13857746  0.00000001  0.24999999  1.0
  Cd  Cd1  1  0.86142254  0.00000000  0.75000001  1.0
  Sn  Sn2  1  0.65949722  0.49999997  0.25000004  1.0
  Sn  Sn3  1  0.34050280  0.50000002  0.74999997  1.0
  Cl  Cl4  1  0.10454357  0.77556536  0.94741735  1.0
  Cl  Cl5  1  0.10454340  0.22443485  0.55258253  1.0
  Cl  Cl6  1  0.89545645  0.22443462  0.05258266  1.0
  Cl  Cl7  1  0.89545654  0.77556519  0.44741745  1.0
  Cl  Cl8  1  0.39222187  0.74594496  0.39931080  1.0
  Cl  Cl9  1  0.39222209  0.25405482  0.10068928  1.0
  Cl  Cl10  1  0.60777809  0.25405504  0.60068918  1.0
  Cl  Cl11  1  0.60777798  0.74594515  0.89931073  1.0
