# generated using pymatgen
data_CeBrCl2
_symmetry_space_group_name_H-M   'P 1'
_cell_length_a   3.84984895
_cell_length_b   9.69586506
_cell_length_c   10.68295403
_cell_angle_alpha   71.73474215
_cell_angle_beta   90.19731354
_cell_angle_gamma   90.10331757
_symmetry_Int_Tables_number   1
_chemical_formula_structural   CeBrCl2
_chemical_formula_sum   'Ce2 Br2 Cl4'
_cell_volume   378.67514102
_cell_formula_units_Z   2
loop_
 _symmetry_equiv_pos_site_id
 _symmetry_equiv_pos_as_xyz
  1  'x, y, z'
loop_
 _atom_site_type_symbol
 _atom_site_label
 _atom_site_symmetry_multiplicity
 _atom_site_fract_x
 _atom_site_fract_y
 _atom_site_fract_z
 _atom_site_occupancy
  Ce  Ce0  1  0.00314632  0.82585817  0.30957325  1.0
  Ce  Ce1  1  0.99644066  0.17419045  0.69039482  1.0
  Br  Br2  1  0.49812220  0.63449545  0.23930073  1.0
  Br  Br3  1  0.50208395  0.36547771  0.76060143  1.0
  Cl  Cl4  1  0.49861110  0.02662695  0.17930979  1.0
  Cl  Cl5  1  0.50143215  0.97339827  0.82073159  1.0
  Cl  Cl6  1  0.50059597  0.79262795  0.50554597  1.0
  Cl  Cl7  1  0.49956765  0.20732506  0.49454241  1.0
