# generated using pymatgen
data_CeSeCl2
_symmetry_space_group_name_H-M   'P 1'
_cell_length_a   3.83723998
_cell_length_b   8.81144942
_cell_length_c   9.89704455
_cell_angle_alpha   84.37840042
_cell_angle_beta   81.41539826
_cell_angle_gamma   70.95978148
_symmetry_Int_Tables_number   1
_chemical_formula_structural   CeSeCl2
_chemical_formula_sum   'Ce2 Se2 Cl4'
_cell_volume   312.34874015
_cell_formula_units_Z   2
loop_
 _symmetry_equiv_pos_site_id
 _symmetry_equiv_pos_as_xyz
  1  'x, y, z'
loop_
 _atom_site_type_symbol
 _atom_site_label
 _atom_site_symmetry_multiplicity
 _atom_site_fract_x
 _atom_site_fract_y
 _atom_site_fract_z
 _atom_site_occupancy
  Ce  Ce0  1  0.94841562  0.82290289  0.33547438  1.0
  Ce  Ce1  1  0.05132702  0.17727322  0.66457222  1.0
  Se  Se2  1  0.63980515  0.59607718  0.28026151  1.0
  Se  Se3  1  0.35962218  0.40406708  0.71990421  1.0
  Cl  Cl4  1  0.36952578  0.00191111  0.19336883  1.0
  Cl  Cl5  1  0.63059508  0.99804008  0.80631268  1.0
  Cl  Cl6  1  0.35164457  0.83994179  0.54886313  1.0
  Cl  Cl7  1  0.64906461  0.15978665  0.45124304  1.0
