# generated using pymatgen
data_CrH2F
_symmetry_space_group_name_H-M   'P 1'
_cell_length_a   5.03118038
_cell_length_b   5.03119762
_cell_length_c   4.75450374
_cell_angle_alpha   63.89766804
_cell_angle_beta   63.89755828
_cell_angle_gamma   56.16528031
_symmetry_Int_Tables_number   1
_chemical_formula_structural   CrH2F
_chemical_formula_sum   'Cr2 H4 F2'
_cell_volume   86.65087443
_cell_formula_units_Z   2
loop_
 _symmetry_equiv_pos_site_id
 _symmetry_equiv_pos_as_xyz
  1  'x, y, z'
loop_
 _atom_site_type_symbol
 _atom_site_label
 _atom_site_symmetry_multiplicity
 _atom_site_fract_x
 _atom_site_fract_y
 _atom_site_fract_z
 _atom_site_occupancy
  Cr  Cr0  1  0.49999999  0.00000001  0.50000001  1.0
  Cr  Cr1  1  0.00000001  0.50000001  0.99999998  1.0
  H  H2  1  0.28553120  0.15101861  0.21291179  1.0
  H  H3  1  0.84898272  0.71447065  0.28708616  1.0
  H  H4  1  0.15101728  0.28552934  0.71291386  1.0
  H  H5  1  0.71446878  0.84898139  0.78708822  1.0
  F  F6  1  0.31740991  0.68259066  0.74999874  1.0
  F  F7  1  0.68259012  0.31740933  0.25000124  1.0
