# generated using pymatgen
data_CrHF4
_symmetry_space_group_name_H-M   'P 1'
_cell_length_a   6.34960426
_cell_length_b   11.31348997
_cell_length_c   6.30921988
_cell_angle_alpha   90.00209776
_cell_angle_beta   115.10472365
_cell_angle_gamma   89.97234702
_symmetry_Int_Tables_number   1
_chemical_formula_structural   CrHF4
_chemical_formula_sum   'Cr4 H4 F16'
_cell_volume   410.41529432
_cell_formula_units_Z   4
loop_
 _symmetry_equiv_pos_site_id
 _symmetry_equiv_pos_as_xyz
  1  'x, y, z'
loop_
 _atom_site_type_symbol
 _atom_site_label
 _atom_site_symmetry_multiplicity
 _atom_site_fract_x
 _atom_site_fract_y
 _atom_site_fract_z
 _atom_site_occupancy
  Cr  Cr0  1  0.75025484  0.87325523  0.50019167  1.0
  Cr  Cr1  1  0.75008505  0.62677352  0.00003591  1.0
  Cr  Cr2  1  0.24988305  0.37379578  0.99991204  1.0
  Cr  Cr3  1  0.24983767  0.12618030  0.49990351  1.0
  H  H4  1  0.74984726  0.14439100  0.99985963  1.0
  H  H5  1  0.25003110  0.59563715  0.50007251  1.0
  H  H6  1  0.74976895  0.35561317  0.49993852  1.0
  H  H7  1  0.25018286  0.90434182  0.00005752  1.0
  F  F8  1  0.20619944  0.46700638  0.76179660  1.0
  F  F9  1  0.68712171  0.96517298  0.25815103  1.0
  F  F10  1  0.48770192  0.28200594  0.04238881  1.0
  F  F11  1  0.98329001  0.78261935  0.52606044  1.0
  F  F12  1  0.01212226  0.28208452  0.95744471  1.0
  F  F13  1  0.51738217  0.78256620  0.47426813  1.0
  F  F14  1  0.29351363  0.46698733  0.23804711  1.0
  F  F15  1  0.81304837  0.96516224  0.74212128  1.0
  F  F16  1  0.20624604  0.03296504  0.26181878  1.0
  F  F17  1  0.68712178  0.53481352  0.75809197  1.0
  F  F18  1  0.48756968  0.21790855  0.54234554  1.0
  F  F19  1  0.98306019  0.71735824  0.02588738  1.0
  F  F20  1  0.01199131  0.21794493  0.45743173  1.0
  F  F21  1  0.51713118  0.71751595  0.97405064  1.0
  F  F22  1  0.29360386  0.03298773  0.73807291  1.0
  F  F23  1  0.81300464  0.53491414  0.24205262  1.0
