# generated using pymatgen
data_CrPbF4
_symmetry_space_group_name_H-M   'P 1'
_cell_length_a   6.79015877
_cell_length_b   9.43760904
_cell_length_c   6.47033613
_cell_angle_alpha   90.00036067
_cell_angle_beta   111.53505971
_cell_angle_gamma   89.99392236
_symmetry_Int_Tables_number   1
_chemical_formula_structural   CrPbF4
_chemical_formula_sum   'Cr4 Pb4 F16'
_cell_volume   385.69310823
_cell_formula_units_Z   4
loop_
 _symmetry_equiv_pos_site_id
 _symmetry_equiv_pos_as_xyz
  1  'x, y, z'
loop_
 _atom_site_type_symbol
 _atom_site_label
 _atom_site_symmetry_multiplicity
 _atom_site_fract_x
 _atom_site_fract_y
 _atom_site_fract_z
 _atom_site_occupancy
  Cr  Cr0  1  0.74995438  0.83237878  0.50002903  1.0
  Cr  Cr1  1  0.75004661  0.66762158  0.99995251  1.0
  Cr  Cr2  1  0.25000169  0.30835654  0.99999689  1.0
  Cr  Cr3  1  0.24999945  0.19164256  0.50000707  1.0
  Pb  Pb4  1  0.75001581  0.11110915  0.99998185  1.0
  Pb  Pb5  1  0.24996446  0.60643346  0.50001882  1.0
  Pb  Pb6  1  0.74996769  0.38889094  0.49995022  1.0
  Pb  Pb7  1  0.25003946  0.89356575  0.00002837  1.0
  F  F8  1  0.18804443  0.39559358  0.68120472  1.0
  F  F9  1  0.59027724  0.97264735  0.26524623  1.0
  F  F10  1  0.56510256  0.30711317  0.10147862  1.0
  F  F11  1  0.96538864  0.68885785  0.68498849  1.0
  F  F12  1  0.93490326  0.30709828  0.89848935  1.0
  F  F13  1  0.53445917  0.68894180  0.31502602  1.0
  F  F14  1  0.31194370  0.39563461  0.31874859  1.0
  F  F15  1  0.90976811  0.97259947  0.73478892  1.0
  F  F16  1  0.18806688  0.10437846  0.18125676  1.0
  F  F17  1  0.59023397  0.52736233  0.76526763  1.0
  F  F18  1  0.56510202  0.19290285  0.60151330  1.0
  F  F19  1  0.96552593  0.81108358  0.18492589  1.0
  F  F20  1  0.93490254  0.19288858  0.39852039  1.0
  F  F21  1  0.53459796  0.81111854  0.81496669  1.0
  F  F22  1  0.31196839  0.10438911  0.81880122  1.0
  F  F23  1  0.90972465  0.52739267  0.23481341  1.0
