# generated using pymatgen
data_Cs2HBr
_symmetry_space_group_name_H-M   'P 1'
_cell_length_a   8.55204285
_cell_length_b   7.13848371
_cell_length_c   7.13848254
_cell_angle_alpha   89.93525149
_cell_angle_beta   114.92435561
_cell_angle_gamma   114.92433329
_symmetry_Int_Tables_number   1
_chemical_formula_structural   Cs2HBr
_chemical_formula_sum   'Cs4 H2 Br2'
_cell_volume   350.05137377
_cell_formula_units_Z   2
loop_
 _symmetry_equiv_pos_site_id
 _symmetry_equiv_pos_as_xyz
  1  'x, y, z'
loop_
 _atom_site_type_symbol
 _atom_site_label
 _atom_site_symmetry_multiplicity
 _atom_site_fract_x
 _atom_site_fract_y
 _atom_site_fract_z
 _atom_site_occupancy
  Cs  Cs0  1  0.29017770  0.14944821  0.38640948  1.0
  Cs  Cs1  1  0.20982241  0.61359053  0.85055212  1.0
  Cs  Cs2  1  0.79017767  0.38640958  0.14944777  1.0
  Cs  Cs3  1  0.70982240  0.85055176  0.61359060  1.0
  H  H4  1  0.74999997  0.37596811  0.62403223  1.0
  H  H5  1  0.24999996  0.62403197  0.37596779  1.0
  Br  Br6  1  0.24999984  0.13422898  0.86577099  1.0
  Br  Br7  1  0.75000006  0.86577085  0.13422903  1.0
