# generated using pymatgen
data_Cs2HCl
_symmetry_space_group_name_H-M   'P 1'
_cell_length_a   8.29332856
_cell_length_b   6.89470881
_cell_length_c   6.89470895
_cell_angle_alpha   90.07534122
_cell_angle_beta   114.44243861
_cell_angle_gamma   114.44244258
_symmetry_Int_Tables_number   1
_chemical_formula_structural   Cs2HCl
_chemical_formula_sum   'Cs4 H2 Cl2'
_cell_volume   319.58306921
_cell_formula_units_Z   2
loop_
 _symmetry_equiv_pos_site_id
 _symmetry_equiv_pos_as_xyz
  1  'x, y, z'
loop_
 _atom_site_type_symbol
 _atom_site_label
 _atom_site_symmetry_multiplicity
 _atom_site_fract_x
 _atom_site_fract_y
 _atom_site_fract_z
 _atom_site_occupancy
  Cs  Cs0  1  0.27869714  0.13670838  0.38649228  1.0
  Cs  Cs1  1  0.22130300  0.61350750  0.86329196  1.0
  Cs  Cs2  1  0.77869699  0.38649250  0.13670808  1.0
  Cs  Cs3  1  0.72130287  0.86329161  0.61350771  1.0
  H  H4  1  0.75000001  0.37235381  0.62764624  1.0
  H  H5  1  0.24999996  0.62764613  0.37235368  1.0
  Cl  Cl6  1  0.24999982  0.12861442  0.87138513  1.0
  Cl  Cl7  1  0.75000023  0.87138565  0.12861491  1.0
