# generated using pymatgen
data_Cs2HI
_symmetry_space_group_name_H-M   'P 1'
_cell_length_a   7.82962694
_cell_length_b   10.03467026
_cell_length_c   13.58047685
_cell_angle_alpha   111.67748682
_cell_angle_beta   116.62678628
_cell_angle_gamma   89.99163053
_symmetry_Int_Tables_number   1
_chemical_formula_structural   Cs2HI
_chemical_formula_sum   'Cs8 H4 I4'
_cell_volume   868.62380069
_cell_formula_units_Z   4
loop_
 _symmetry_equiv_pos_site_id
 _symmetry_equiv_pos_as_xyz
  1  'x, y, z'
loop_
 _atom_site_type_symbol
 _atom_site_label
 _atom_site_symmetry_multiplicity
 _atom_site_fract_x
 _atom_site_fract_y
 _atom_site_fract_z
 _atom_site_occupancy
  Cs  Cs0  1  0.38254449  0.21107957  0.84789887  1.0
  Cs  Cs1  1  0.11751148  0.36323407  0.15211755  1.0
  Cs  Cs2  1  0.61745586  0.78892044  0.15210116  1.0
  Cs  Cs3  1  0.88248879  0.63676633  0.84788255  1.0
  Cs  Cs4  1  0.21704440  0.11333923  0.46581281  1.0
  Cs  Cs5  1  0.28293847  0.64758258  0.53416506  1.0
  Cs  Cs6  1  0.78295515  0.88666038  0.53418682  1.0
  Cs  Cs7  1  0.71706113  0.35241707  0.46583520  1.0
  H  H8  1  0.20415813  0.95324799  0.61923954  1.0
  H  H9  1  0.29593061  0.33409743  0.38082811  1.0
  H  H10  1  0.79584177  0.04675194  0.38076035  1.0
  H  H11  1  0.70406905  0.66590252  0.61917178  1.0
  I  I12  1  0.15946659  0.76553848  0.20108443  1.0
  I  I13  1  0.34050762  0.56439714  0.79892515  1.0
  I  I14  1  0.84053358  0.23446168  0.79891523  1.0
  I  I15  1  0.65949289  0.43560315  0.20107538  1.0
