# generated using pymatgen
data_Cs5SbI8
_symmetry_space_group_name_H-M   'P 1'
_cell_length_a   10.82246432
_cell_length_b   19.22299426
_cell_length_c   11.13326230
_cell_angle_alpha   72.73601607
_cell_angle_beta   60.91520426
_cell_angle_gamma   90.00567941
_symmetry_Int_Tables_number   1
_chemical_formula_structural   Cs5SbI8
_chemical_formula_sum   'Cs10 Sb2 I16'
_cell_volume   1903.76933806
_cell_formula_units_Z   2
loop_
 _symmetry_equiv_pos_site_id
 _symmetry_equiv_pos_as_xyz
  1  'x, y, z'
loop_
 _atom_site_type_symbol
 _atom_site_label
 _atom_site_symmetry_multiplicity
 _atom_site_fract_x
 _atom_site_fract_y
 _atom_site_fract_z
 _atom_site_occupancy
  Cs  Cs0  1  0.70008682  0.56074334  0.10026874  1.0
  Cs  Cs1  1  0.80032165  0.93921486  0.89972545  1.0
  Cs  Cs2  1  0.74947913  0.25001167  0.50010370  1.0
  Cs  Cs3  1  0.00002556  0.50001880  0.49997722  1.0
  Cs  Cs4  1  0.24953688  0.24999883  0.49986269  1.0
  Cs  Cs5  1  0.19970391  0.06074463  0.10020752  1.0
  Cs  Cs6  1  0.29997172  0.43921448  0.89968432  1.0
  Cs  Cs7  1  0.25053850  0.74999418  0.49995690  1.0
  Cs  Cs8  1  0.49998363  0.00001700  0.49996823  1.0
  Cs  Cs9  1  0.75040278  0.75002837  0.50014784  1.0
  Sb  Sb10  1  0.74975287  0.24998253  0.00000030  1.0
  Sb  Sb11  1  0.25023800  0.74999900  0.00004081  1.0
  I  I12  1  0.39442263  0.12747338  0.70995376  1.0
  I  I13  1  0.89549734  0.62745653  0.71001233  1.0
  I  I14  1  0.10449920  0.37258209  0.28994203  1.0
  I  I15  1  0.60558288  0.87256114  0.28998258  1.0
  I  I16  1  0.45091953  0.15068840  0.19625417  1.0
  I  I17  1  0.95134198  0.65079978  0.19623676  1.0
  I  I18  1  0.85247316  0.15078656  0.19612390  1.0
  I  I19  1  0.35285186  0.65071911  0.19621598  1.0
  I  I20  1  0.65116504  0.34610059  0.19698695  1.0
  I  I21  1  0.15192582  0.84611041  0.19703535  1.0
  I  I22  1  0.64720770  0.34929323  0.80378389  1.0
  I  I23  1  0.14753616  0.84920590  0.80390360  1.0
  I  I24  1  0.84805805  0.15385640  0.80302466  1.0
  I  I25  1  0.34882177  0.65386488  0.80307589  1.0
  I  I26  1  0.04862929  0.34920036  0.80378866  1.0
  I  I27  1  0.54902912  0.84933152  0.80373476  1.0
