# generated using pymatgen
data_Cs5SeCl9
_symmetry_space_group_name_H-M   'P 1'
_cell_length_a   8.47024985
_cell_length_b   8.47024896
_cell_length_c   10.00467496
_cell_angle_alpha   90.00021566
_cell_angle_beta   89.99976478
_cell_angle_gamma   120.00024085
_symmetry_Int_Tables_number   1
_chemical_formula_structural   Cs5SeCl9
_chemical_formula_sum   'Cs5 Se1 Cl9'
_cell_volume   621.61996942
_cell_formula_units_Z   1
loop_
 _symmetry_equiv_pos_site_id
 _symmetry_equiv_pos_as_xyz
  1  'x, y, z'
loop_
 _atom_site_type_symbol
 _atom_site_label
 _atom_site_symmetry_multiplicity
 _atom_site_fract_x
 _atom_site_fract_y
 _atom_site_fract_z
 _atom_site_occupancy
  Cs  Cs0  1  0.33333333  0.66666667  0.76151589  1.0
  Cs  Cs1  1  0.99999999  0.00000001  0.00000000  1.0
  Cs  Cs2  1  0.66666667  0.33333333  0.23848411  1.0
  Cs  Cs3  1  0.33333333  0.66666667  0.21229647  1.0
  Cs  Cs4  1  0.66666667  0.33333333  0.78770353  1.0
  Se  Se5  1  0.00000000  0.00000000  0.50000000  1.0
  Cl  Cl6  1  0.50000000  0.50000000  0.00000000  1.0
  Cl  Cl7  1  0.00000000  0.49999999  0.00000000  1.0
  Cl  Cl8  1  0.50000001  0.00000000  0.00000000  1.0
  Cl  Cl9  1  0.86662069  0.13338078  0.64224497  1.0
  Cl  Cl10  1  0.86661998  0.73323756  0.64224237  1.0
  Cl  Cl11  1  0.26676395  0.13338153  0.64224059  1.0
  Cl  Cl12  1  0.13337931  0.86661922  0.35775503  1.0
  Cl  Cl13  1  0.13338002  0.26676244  0.35775763  1.0
  Cl  Cl14  1  0.73323604  0.86661847  0.35775941  1.0
