# generated using pymatgen
data_Cs8SbI5
_symmetry_space_group_name_H-M   'P 1'
_cell_length_a   11.17706039
_cell_length_b   19.92678547
_cell_length_c   11.62333075
_cell_angle_alpha   73.65368757
_cell_angle_beta   61.25766839
_cell_angle_gamma   90.00346029
_symmetry_Int_Tables_number   1
_chemical_formula_structural   Cs8SbI5
_chemical_formula_sum   'Cs16 Sb2 I10'
_cell_volume   2149.68122052
_cell_formula_units_Z   2
loop_
 _symmetry_equiv_pos_site_id
 _symmetry_equiv_pos_as_xyz
  1  'x, y, z'
loop_
 _atom_site_type_symbol
 _atom_site_label
 _atom_site_symmetry_multiplicity
 _atom_site_fract_x
 _atom_site_fract_y
 _atom_site_fract_z
 _atom_site_occupancy
  Cs  Cs0  1  0.39654155  0.12968828  0.70577022  1.0
  Cs  Cs1  1  0.89758181  0.62967350  0.70582699  1.0
  Cs  Cs2  1  0.10242178  0.37036179  0.29412877  1.0
  Cs  Cs3  1  0.60345805  0.87034445  0.29416969  1.0
  Cs  Cs4  1  0.40874266  0.13654535  0.23344614  1.0
  Cs  Cs5  1  0.90908840  0.63665599  0.23347333  1.0
  Cs  Cs6  1  0.85747359  0.13664131  0.23338372  1.0
  Cs  Cs7  1  0.35781875  0.63656469  0.23343069  1.0
  Cs  Cs8  1  0.63115981  0.35554006  0.23695236  1.0
  Cs  Cs9  1  0.13194980  0.85555332  0.23699396  1.0
  Cs  Cs10  1  0.64224999  0.36343669  0.76658153  1.0
  Cs  Cs11  1  0.14255062  0.86334306  0.76664487  1.0
  Cs  Cs12  1  0.86803430  0.14442269  0.76305158  1.0
  Cs  Cs13  1  0.36882813  0.64443375  0.76309635  1.0
  Cs  Cs14  1  0.09087495  0.36334431  0.76654613  1.0
  Cs  Cs15  1  0.59119579  0.86347173  0.76653983  1.0
  Sb  Sb16  1  0.74978490  0.24997916  0.00000512  1.0
  Sb  Sb17  1  0.25021342  0.74999709  0.00004921  1.0
  I  I18  1  0.70328276  0.56200034  0.09389130  1.0
  I  I19  1  0.79713792  0.93796693  0.90610209  1.0
  I  I20  1  0.74949173  0.25001971  0.50008992  1.0
  I  I21  1  0.00001081  0.50001091  0.49999705  1.0
  I  I22  1  0.24954981  0.24999469  0.49987089  1.0
  I  I23  1  0.20288355  0.06200571  0.09383583  1.0
  I  I24  1  0.29677049  0.43797081  0.90606424  1.0
  I  I25  1  0.25052343  0.74998836  0.49994264  1.0
  I  I26  1  0.49997782  0.00000996  0.49998831  1.0
  I  I27  1  0.75040635  0.75003332  0.50012622  1.0
