# generated using pymatgen
data_Cs8SbCl5
_symmetry_space_group_name_H-M   'P 1'
_cell_length_a   10.30537213
_cell_length_b   17.93767591
_cell_length_c   10.63697083
_cell_angle_alpha   73.72863559
_cell_angle_beta   61.02156946
_cell_angle_gamma   90.00246665
_symmetry_Int_Tables_number   1
_chemical_formula_structural   Cs8SbCl5
_chemical_formula_sum   'Cs16 Sb2 Cl10'
_cell_volume   1629.48763260
_cell_formula_units_Z   2
loop_
 _symmetry_equiv_pos_site_id
 _symmetry_equiv_pos_as_xyz
  1  'x, y, z'
loop_
 _atom_site_type_symbol
 _atom_site_label
 _atom_site_symmetry_multiplicity
 _atom_site_fract_x
 _atom_site_fract_y
 _atom_site_fract_z
 _atom_site_occupancy
  Cs  Cs0  1  0.39451294  0.13123362  0.71018578  1.0
  Cs  Cs1  1  0.89522071  0.63122263  0.71025487  1.0
  Cs  Cs2  1  0.10477300  0.36879566  0.28973394  1.0
  Cs  Cs3  1  0.60547314  0.86879228  0.28977625  1.0
  Cs  Cs4  1  0.38231678  0.12738514  0.25940959  1.0
  Cs  Cs5  1  0.88261187  0.62745926  0.25947377  1.0
  Cs  Cs6  1  0.85788886  0.12747001  0.25945505  1.0
  Cs  Cs7  1  0.35820814  0.62740530  0.25946555  1.0
  Cs  Cs8  1  0.61986797  0.36537489  0.25960094  1.0
  Cs  Cs9  1  0.12054146  0.86537967  0.25962705  1.0
  Cs  Cs10  1  0.64181209  0.37258684  0.74055928  1.0
  Cs  Cs11  1  0.14210533  0.87251495  0.74058279  1.0
  Cs  Cs12  1  0.87946409  0.13461856  0.74036871  1.0
  Cs  Cs13  1  0.38013747  0.63462297  0.74039599  1.0
  Cs  Cs14  1  0.11737673  0.37253793  0.74054711  1.0
  Cs  Cs15  1  0.61765712  0.87261936  0.74058967  1.0
  Sb  Sb16  1  0.74983753  0.24998682  0.99999791  1.0
  Sb  Sb17  1  0.25016830  0.74999278  0.00003220  1.0
  Cl  Cl18  1  0.70303004  0.56611439  0.09427436  1.0
  Cl  Cl19  1  0.79733946  0.93387425  0.90574316  1.0
  Cl  Cl20  1  0.74959231  0.25003776  0.50004659  1.0
  Cl  Cl21  1  0.99999767  0.49999858  0.50001783  1.0
  Cl  Cl22  1  0.24964225  0.24996232  0.49988402  1.0
  Cl  Cl23  1  0.20267510  0.06612088  0.09422530  1.0
  Cl  Cl24  1  0.29700489  0.43388016  0.90570794  1.0
  Cl  Cl25  1  0.25042111  0.74996250  0.49994794  1.0
  Cl  Cl26  1  0.49997825  0.99999784  0.50001136  1.0
  Cl  Cl27  1  0.75034837  0.75005066  0.50008404  1.0
