# generated using pymatgen
data_CsAlH4
_symmetry_space_group_name_H-M   'P 1'
_cell_length_a   6.49920010
_cell_length_b   7.77904557
_cell_length_c   11.02913331
_cell_angle_alpha   66.19765279
_cell_angle_beta   90.00000518
_cell_angle_gamma   89.99999764
_symmetry_Int_Tables_number   1
_chemical_formula_structural   CsAlH4
_chemical_formula_sum   'Cs4 Al4 H16'
_cell_volume   510.17798377
_cell_formula_units_Z   4
loop_
 _symmetry_equiv_pos_site_id
 _symmetry_equiv_pos_as_xyz
  1  'x, y, z'
loop_
 _atom_site_type_symbol
 _atom_site_label
 _atom_site_symmetry_multiplicity
 _atom_site_fract_x
 _atom_site_fract_y
 _atom_site_fract_z
 _atom_site_occupancy
  Cs  Cs0  1  0.80415277  0.00000009  0.74999993  1.0
  Cs  Cs1  1  0.19584723  0.99999992  0.25000006  1.0
  Cs  Cs2  1  0.30214302  0.50000000  0.75000005  1.0
  Cs  Cs3  1  0.69785697  0.50000000  0.24999995  1.0
  Al  Al4  1  0.78498599  0.70679304  0.52704448  1.0
  Al  Al5  1  0.21501402  0.29320696  0.47295552  1.0
  Al  Al6  1  0.78498606  0.29320690  0.97295554  1.0
  Al  Al7  1  0.21501394  0.70679310  0.02704446  1.0
  H  H8  1  0.23416436  0.78705188  0.86579785  1.0
  H  H9  1  0.76583564  0.21294810  0.13420217  1.0
  H  H10  1  0.23416451  0.21294820  0.63420214  1.0
  H  H11  1  0.76583549  0.78705179  0.36579786  1.0
  H  H12  1  0.60270274  0.79495541  0.58663215  1.0
  H  H13  1  0.39729725  0.20504460  0.41336785  1.0
  H  H14  1  0.60270281  0.20504455  0.91336786  1.0
  H  H15  1  0.39729717  0.79495544  0.08663213  1.0
  H  H16  1  0.76652434  0.47634634  0.59279347  1.0
  H  H17  1  0.23347567  0.52365364  0.40720655  1.0
  H  H18  1  0.76652434  0.52365359  0.90720660  1.0
  H  H19  1  0.23347565  0.47634643  0.09279340  1.0
  H  H20  1  0.99361441  0.77465954  0.06346544  1.0
  H  H21  1  0.00638562  0.22534047  0.93653455  1.0
  H  H22  1  0.99361447  0.22534051  0.43653454  1.0
  H  H23  1  0.00638554  0.77465951  0.56346545  1.0
