# generated using pymatgen
data_CsAlS2
_symmetry_space_group_name_H-M   'P 1'
_cell_length_a   5.81283415
_cell_length_b   7.33687103
_cell_length_c   7.33687653
_cell_angle_alpha   116.20979429
_cell_angle_beta   101.59873484
_cell_angle_gamma   101.59890325
_symmetry_Int_Tables_number   1
_chemical_formula_structural   CsAlS2
_chemical_formula_sum   'Cs2 Al2 S4'
_cell_volume   259.61186986
_cell_formula_units_Z   2
loop_
 _symmetry_equiv_pos_site_id
 _symmetry_equiv_pos_as_xyz
  1  'x, y, z'
loop_
 _atom_site_type_symbol
 _atom_site_label
 _atom_site_symmetry_multiplicity
 _atom_site_fract_x
 _atom_site_fract_y
 _atom_site_fract_z
 _atom_site_occupancy
  Cs  Cs0  1  0.75000000  0.35479064  0.64520926  1.0
  Cs  Cs1  1  0.25000002  0.64520931  0.35479069  1.0
  Al  Al2  1  0.24999947  0.00254692  0.99745315  1.0
  Al  Al3  1  0.74999818  0.99745289  0.00254665  1.0
  S  S4  1  0.09364440  0.07780387  0.27227143  1.0
  S  S5  1  0.40635707  0.72772920  0.92219647  1.0
  S  S6  1  0.59364422  0.27227098  0.07780363  1.0
  S  S7  1  0.90635664  0.92219620  0.72772873  1.0
