# generated using pymatgen
data_CsAuCl2
_symmetry_space_group_name_H-M   'P 1'
_cell_length_a   5.44399743
_cell_length_b   10.36404116
_cell_length_c   11.04103098
_cell_angle_alpha   69.93967959
_cell_angle_beta   115.88566829
_cell_angle_gamma   64.65279091
_symmetry_Int_Tables_number   1
_chemical_formula_structural   CsAuCl2
_chemical_formula_sum   'Cs2 Au2 Cl4'
_cell_volume   384.14502298
_cell_formula_units_Z   2
loop_
 _symmetry_equiv_pos_site_id
 _symmetry_equiv_pos_as_xyz
  1  'x, y, z'
loop_
 _atom_site_type_symbol
 _atom_site_label
 _atom_site_symmetry_multiplicity
 _atom_site_fract_x
 _atom_site_fract_y
 _atom_site_fract_z
 _atom_site_occupancy
  Cs  Cs0  1  0.48505250  0.51349686  0.23991184  1.0
  Cs  Cs1  1  0.51496298  0.48649731  0.76009517  1.0
  Au  Au2  1  0.01166242  0.99141520  0.26115696  1.0
  Au  Au3  1  0.98847367  0.00851479  0.73889178  1.0
  Cl  Cl4  1  0.44255865  0.29100620  0.05900588  1.0
  Cl  Cl5  1  0.55741657  0.70901205  0.94099115  1.0
  Cl  Cl6  1  0.58040863  0.69215757  0.46265104  1.0
  Cl  Cl7  1  0.41946458  0.30790001  0.53729618  1.0
