# generated using pymatgen
data_CsAuCl2
_symmetry_space_group_name_H-M   'P 1'
_cell_length_a   5.45566466
_cell_length_b   5.45566679
_cell_length_c   5.45566540
_cell_angle_alpha   60.00001013
_cell_angle_beta   60.00003141
_cell_angle_gamma   59.99997838
_symmetry_Int_Tables_number   1
_chemical_formula_structural   CsAuCl2
_chemical_formula_sum   'Cs1 Au1 Cl2'
_cell_volume   114.82284409
_cell_formula_units_Z   1
loop_
 _symmetry_equiv_pos_site_id
 _symmetry_equiv_pos_as_xyz
  1  'x, y, z'
loop_
 _atom_site_type_symbol
 _atom_site_label
 _atom_site_symmetry_multiplicity
 _atom_site_fract_x
 _atom_site_fract_y
 _atom_site_fract_z
 _atom_site_occupancy
  Cs  Cs0  1  0.00000002  0.00000004  0.99999989  1.0
  Au  Au1  1  0.50000011  0.50000000  0.49999995  1.0
  Cl  Cl2  1  0.74999973  0.75000006  0.74999989  1.0
  Cl  Cl3  1  0.25000014  0.24999990  0.25000027  1.0
