# generated using pymatgen
data_CsCuCl2
_symmetry_space_group_name_H-M   'P 1'
_cell_length_a   4.17356867
_cell_length_b   7.59567342
_cell_length_c   8.15672241
_cell_angle_alpha   91.75455149
_cell_angle_beta   89.99999259
_cell_angle_gamma   89.99999910
_symmetry_Int_Tables_number   1
_chemical_formula_structural   CsCuCl2
_chemical_formula_sum   'Cs2 Cu2 Cl4'
_cell_volume   258.45555346
_cell_formula_units_Z   2
loop_
 _symmetry_equiv_pos_site_id
 _symmetry_equiv_pos_as_xyz
  1  'x, y, z'
loop_
 _atom_site_type_symbol
 _atom_site_label
 _atom_site_symmetry_multiplicity
 _atom_site_fract_x
 _atom_site_fract_y
 _atom_site_fract_z
 _atom_site_occupancy
  Cs  Cs0  1  0.00000015  0.99999818  0.00000207  1.0
  Cs  Cs1  1  0.50000008  0.99999990  0.50000341  1.0
  Cu  Cu2  1  0.49999995  0.61582396  0.15912684  1.0
  Cu  Cu3  1  0.49999954  0.38417834  0.84085756  1.0
  Cl  Cl4  1  0.50000012  0.30838418  0.13157672  1.0
  Cl  Cl5  1  0.00000008  0.29776545  0.71401812  1.0
  Cl  Cl6  1  0.99999993  0.70223485  0.28598907  1.0
  Cl  Cl7  1  0.50000015  0.69161514  0.86842622  1.0
