# generated using pymatgen
data_CsDyI4
_symmetry_space_group_name_H-M   'P 1'
_cell_length_a   8.82941371
_cell_length_b   8.83947714
_cell_length_c   8.26994198
_cell_angle_alpha   80.85773683
_cell_angle_beta   90.00000040
_cell_angle_gamma   89.99999947
_symmetry_Int_Tables_number   1
_chemical_formula_structural   CsDyI4
_chemical_formula_sum   'Cs2 Dy2 I8'
_cell_volume   637.24827560
_cell_formula_units_Z   2
loop_
 _symmetry_equiv_pos_site_id
 _symmetry_equiv_pos_as_xyz
  1  'x, y, z'
loop_
 _atom_site_type_symbol
 _atom_site_label
 _atom_site_symmetry_multiplicity
 _atom_site_fract_x
 _atom_site_fract_y
 _atom_site_fract_z
 _atom_site_occupancy
  Cs  Cs0  1  0.22420167  0.00000000  0.75000000  1.0
  Cs  Cs1  1  0.77579834  0.00000000  0.25000001  1.0
  Dy  Dy2  1  0.65367664  0.50000000  0.75000000  1.0
  Dy  Dy3  1  0.34632336  0.50000000  0.25000000  1.0
  I  I4  1  0.88919318  0.27724368  0.87290886  1.0
  I  I5  1  0.41906746  0.30008055  0.98284925  1.0
  I  I6  1  0.41906746  0.69991945  0.51715075  1.0
  I  I7  1  0.88919318  0.72275633  0.62709115  1.0
  I  I8  1  0.11080683  0.27724366  0.37290884  1.0
  I  I9  1  0.58093254  0.30008055  0.48284925  1.0
  I  I10  1  0.58093253  0.69991945  0.01715075  1.0
  I  I11  1  0.11080682  0.72275633  0.12709114  1.0
