# generated using pymatgen
data_CsDyS2
_symmetry_space_group_name_H-M   'P 1'
_cell_length_a   4.37618195
_cell_length_b   8.39187506
_cell_length_c   8.64918333
_cell_angle_alpha   88.88606983
_cell_angle_beta   89.99992822
_cell_angle_gamma   90.00002839
_symmetry_Int_Tables_number   1
_chemical_formula_structural   CsDyS2
_chemical_formula_sum   'Cs2 Dy2 S4'
_cell_volume   317.57579917
_cell_formula_units_Z   2
loop_
 _symmetry_equiv_pos_site_id
 _symmetry_equiv_pos_as_xyz
  1  'x, y, z'
loop_
 _atom_site_type_symbol
 _atom_site_label
 _atom_site_symmetry_multiplicity
 _atom_site_fract_x
 _atom_site_fract_y
 _atom_site_fract_z
 _atom_site_occupancy
  Cs  Cs0  1  0.00000001  0.00000001  0.00000001  1.0
  Cs  Cs1  1  0.49999997  0.99999996  0.50000008  1.0
  Dy  Dy2  1  0.50000012  0.59573370  0.18586257  1.0
  Dy  Dy3  1  0.49999988  0.40426630  0.81413741  1.0
  S  S4  1  0.50000026  0.30196043  0.10014889  1.0
  S  S5  1  0.00000009  0.28157090  0.69023986  1.0
  S  S6  1  0.99999989  0.71842913  0.30976013  1.0
  S  S7  1  0.49999977  0.69803957  0.89985107  1.0
