# generated using pymatgen
data_CsGaH4
_symmetry_space_group_name_H-M   'P 1'
_cell_length_a   5.79495350
_cell_length_b   8.96324317
_cell_length_c   10.12939897
_cell_angle_alpha   68.59389126
_cell_angle_beta   90.00004247
_cell_angle_gamma   90.00004444
_symmetry_Int_Tables_number   1
_chemical_formula_structural   CsGaH4
_chemical_formula_sum   'Cs4 Ga4 H16'
_cell_volume   489.84240621
_cell_formula_units_Z   4
loop_
 _symmetry_equiv_pos_site_id
 _symmetry_equiv_pos_as_xyz
  1  'x, y, z'
loop_
 _atom_site_type_symbol
 _atom_site_label
 _atom_site_symmetry_multiplicity
 _atom_site_fract_x
 _atom_site_fract_y
 _atom_site_fract_z
 _atom_site_occupancy
  Cs  Cs0  1  0.75898785  0.99999922  0.24999989  1.0
  Cs  Cs1  1  0.24101165  0.99999825  0.75000088  1.0
  Cs  Cs2  1  0.24509091  0.49999975  0.25000039  1.0
  Cs  Cs3  1  0.75490894  0.50000001  0.74999946  1.0
  Ga  Ga4  1  0.74184248  0.24412742  0.49663732  1.0
  Ga  Ga5  1  0.74184276  0.75587260  0.00336389  1.0
  Ga  Ga6  1  0.25815845  0.75587260  0.50336331  1.0
  Ga  Ga7  1  0.25815742  0.24412774  0.99663562  1.0
  H  H8  1  0.03646235  0.68874547  0.44855280  1.0
  H  H9  1  0.03647752  0.31125000  0.05144239  1.0
  H  H10  1  0.96353537  0.31125253  0.55144762  1.0
  H  H11  1  0.96355128  0.68874140  0.94855051  1.0
  H  H12  1  0.51161275  0.69161192  0.95493080  1.0
  H  H13  1  0.51162819  0.30838255  0.54506680  1.0
  H  H14  1  0.48835783  0.30838001  0.04506282  1.0
  H  H15  1  0.48837485  0.69161561  0.45493315  1.0
  H  H16  1  0.74745259  0.30520329  0.32701928  1.0
  H  H17  1  0.74745222  0.69479174  0.17299288  1.0
  H  H18  1  0.25254698  0.69479502  0.67298327  1.0
  H  H19  1  0.25254834  0.30520071  0.82702763  1.0
  H  H20  1  0.25531374  0.94810737  0.43868733  1.0
  H  H21  1  0.25531430  0.05191075  0.06130600  1.0
  H  H22  1  0.74468511  0.05189583  0.56131178  1.0
  H  H23  1  0.74468611  0.94811821  0.93868419  1.0
