# generated using pymatgen
data_CsHgCl2
_symmetry_space_group_name_H-M   'P 1'
_cell_length_a   5.67026679
_cell_length_b   5.67026563
_cell_length_c   5.67026579
_cell_angle_alpha   59.99997305
_cell_angle_beta   59.99997396
_cell_angle_gamma   59.99999435
_symmetry_Int_Tables_number   1
_chemical_formula_structural   CsHgCl2
_chemical_formula_sum   'Cs1 Hg1 Cl2'
_cell_volume   128.91252766
_cell_formula_units_Z   1
loop_
 _symmetry_equiv_pos_site_id
 _symmetry_equiv_pos_as_xyz
  1  'x, y, z'
loop_
 _atom_site_type_symbol
 _atom_site_label
 _atom_site_symmetry_multiplicity
 _atom_site_fract_x
 _atom_site_fract_y
 _atom_site_fract_z
 _atom_site_occupancy
  Cs  Cs0  1  0.99999995  0.00000007  0.99999996  1.0
  Hg  Hg1  1  0.49999999  0.49999996  0.50000004  1.0
  Cl  Cl2  1  0.74999995  0.75000002  0.74999986  1.0
  Cl  Cl3  1  0.25000011  0.24999995  0.25000014  1.0
