# generated using pymatgen
data_CsKH2
_symmetry_space_group_name_H-M   'P 1'
_cell_length_a   4.14212687
_cell_length_b   8.53004986
_cell_length_c   7.19257875
_cell_angle_alpha   65.14579552
_cell_angle_beta   89.99957192
_cell_angle_gamma   75.94897716
_symmetry_Int_Tables_number   1
_chemical_formula_structural   CsKH2
_chemical_formula_sum   'Cs2 K2 H4'
_cell_volume   222.18699957
_cell_formula_units_Z   2
loop_
 _symmetry_equiv_pos_site_id
 _symmetry_equiv_pos_as_xyz
  1  'x, y, z'
loop_
 _atom_site_type_symbol
 _atom_site_label
 _atom_site_symmetry_multiplicity
 _atom_site_fract_x
 _atom_site_fract_y
 _atom_site_fract_z
 _atom_site_occupancy
  Cs  Cs0  1  0.25000226  0.50000093  0.24999849  1.0
  Cs  Cs1  1  0.75000453  0.49999907  0.75000153  1.0
  K  K2  1  0.49999374  0.00000000  0.49999998  1.0
  K  K3  1  0.99999434  0.00000001  0.99999999  1.0
  H  H4  1  0.38731155  0.22535662  0.05500979  1.0
  H  H5  1  0.88730284  0.22536494  0.55500400  1.0
  H  H6  1  0.61268081  0.77464337  0.94499021  1.0
  H  H7  1  0.11268894  0.77463506  0.44499600  1.0
