# generated using pymatgen
data_CsKH2
_symmetry_space_group_name_H-M   'P 1'
_cell_length_a   7.35205970
_cell_length_b   6.16544118
_cell_length_c   6.16544110
_cell_angle_alpha   90.50189771
_cell_angle_beta   114.10540201
_cell_angle_gamma   114.10540308
_symmetry_Int_Tables_number   1
_chemical_formula_structural   CsKH2
_chemical_formula_sum   'Cs2 K2 H4'
_cell_volume   227.62645244
_cell_formula_units_Z   2
loop_
 _symmetry_equiv_pos_site_id
 _symmetry_equiv_pos_as_xyz
  1  'x, y, z'
loop_
 _atom_site_type_symbol
 _atom_site_label
 _atom_site_symmetry_multiplicity
 _atom_site_fract_x
 _atom_site_fract_y
 _atom_site_fract_z
 _atom_site_occupancy
  Cs  Cs0  1  0.75000000  0.37154864  0.62845136  1.0
  Cs  Cs1  1  0.25000000  0.62845136  0.37154865  1.0
  K  K2  1  0.25000000  0.12133999  0.87866001  1.0
  K  K3  1  0.75000000  0.87866001  0.12133999  1.0
  H  H4  1  0.21345690  0.11223826  0.34882299  1.0
  H  H5  1  0.28654310  0.65117701  0.88776175  1.0
  H  H6  1  0.71345690  0.34882299  0.11223826  1.0
  H  H7  1  0.78654310  0.88776174  0.65117701  1.0
