# generated using pymatgen
data_CsLaO2
_symmetry_space_group_name_H-M   'P 1'
_cell_length_a   4.64911191
_cell_length_b   4.64910875
_cell_length_c   4.64911133
_cell_angle_alpha   59.99999571
_cell_angle_beta   60.00000933
_cell_angle_gamma   59.99998736
_symmetry_Int_Tables_number   1
_chemical_formula_structural   CsLaO2
_chemical_formula_sum   'Cs1 La1 O2'
_cell_volume   71.05499755
_cell_formula_units_Z   1
loop_
 _symmetry_equiv_pos_site_id
 _symmetry_equiv_pos_as_xyz
  1  'x, y, z'
loop_
 _atom_site_type_symbol
 _atom_site_label
 _atom_site_symmetry_multiplicity
 _atom_site_fract_x
 _atom_site_fract_y
 _atom_site_fract_z
 _atom_site_occupancy
  Cs  Cs0  1  0.00000001  0.00000021  0.99999989  1.0
  La  La1  1  0.49999975  0.49999948  0.50000061  1.0
  O  O2  1  0.75000006  0.75000004  0.74999977  1.0
  O  O3  1  0.25000018  0.25000027  0.24999974  1.0
