# generated using pymatgen
data_CsLiI2
_symmetry_space_group_name_H-M   'P 1'
_cell_length_a   5.20241258
_cell_length_b   9.25749042
_cell_length_c   10.84329764
_cell_angle_alpha   74.26319267
_cell_angle_beta   90.00000314
_cell_angle_gamma   89.99999847
_symmetry_Int_Tables_number   1
_chemical_formula_structural   CsLiI2
_chemical_formula_sum   'Cs2 Li2 I4'
_cell_volume   502.65287545
_cell_formula_units_Z   2
loop_
 _symmetry_equiv_pos_site_id
 _symmetry_equiv_pos_as_xyz
  1  'x, y, z'
loop_
 _atom_site_type_symbol
 _atom_site_label
 _atom_site_symmetry_multiplicity
 _atom_site_fract_x
 _atom_site_fract_y
 _atom_site_fract_z
 _atom_site_occupancy
  Cs  Cs0  1  0.50000000  0.49999993  0.00000002  1.0
  Cs  Cs1  1  0.49999999  0.50000002  0.50000001  1.0
  Li  Li2  1  0.99999999  0.06004123  0.82246933  1.0
  Li  Li3  1  0.00000001  0.93995875  0.17753070  1.0
  I  I4  1  0.49999996  0.11582211  0.69361275  1.0
  I  I5  1  0.00000000  0.77713477  0.99474493  1.0
  I  I6  1  0.00000000  0.22286533  0.00525501  1.0
  I  I7  1  0.50000004  0.88417786  0.30638726  1.0
