# generated using pymatgen
data_CsLuO2
_symmetry_space_group_name_H-M   'P 1'
_cell_length_a   7.28372654
_cell_length_b   7.35584570
_cell_length_c   7.28423655
_cell_angle_alpha   123.37071481
_cell_angle_beta   152.25561104
_cell_angle_gamma   48.40295153
_symmetry_Int_Tables_number   1
_chemical_formula_structural   CsLuO2
_chemical_formula_sum   'Cs2 Lu2 O4'
_cell_volume   135.07803510
_cell_formula_units_Z   2
loop_
 _symmetry_equiv_pos_site_id
 _symmetry_equiv_pos_as_xyz
  1  'x, y, z'
loop_
 _atom_site_type_symbol
 _atom_site_label
 _atom_site_symmetry_multiplicity
 _atom_site_fract_x
 _atom_site_fract_y
 _atom_site_fract_z
 _atom_site_occupancy
  Cs  Cs0  1  0.99706017  0.25000813  0.74706001  1.0
  Cs  Cs1  1  0.00293636  0.74999738  0.25294197  1.0
  Lu  Lu2  1  0.00000413  0.49999552  0.50000043  1.0
  Lu  Lu3  1  0.99999771  0.00000184  0.99999884  1.0
  O  O4  1  0.33512027  0.24601513  0.41773789  1.0
  O  O5  1  0.66378152  0.25397922  0.08114913  1.0
  O  O6  1  0.33621767  0.74602073  0.91884983  1.0
  O  O7  1  0.66488218  0.75398205  0.58226190  1.0
