# generated using pymatgen
data_CsSbH2
_symmetry_space_group_name_H-M   'P 1'
_cell_length_a   7.95840443
_cell_length_b   5.81079108
_cell_length_c   5.83466883
_cell_angle_alpha   89.91053465
_cell_angle_beta   104.58116339
_cell_angle_gamma   104.70362605
_symmetry_Int_Tables_number   1
_chemical_formula_structural   CsSbH2
_chemical_formula_sum   'Cs2 Sb2 H4'
_cell_volume   252.01934751
_cell_formula_units_Z   2
loop_
 _symmetry_equiv_pos_site_id
 _symmetry_equiv_pos_as_xyz
  1  'x, y, z'
loop_
 _atom_site_type_symbol
 _atom_site_label
 _atom_site_symmetry_multiplicity
 _atom_site_fract_x
 _atom_site_fract_y
 _atom_site_fract_z
 _atom_site_occupancy
  Cs  Cs0  1  0.75018165  0.25929682  0.74146819  1.0
  Cs  Cs1  1  0.24982654  0.74072286  0.25850431  1.0
  Sb  Sb2  1  0.75022070  0.74737920  0.25334316  1.0
  Sb  Sb3  1  0.24966939  0.25253705  0.74659718  1.0
  H  H4  1  0.89283220  0.02611730  0.23177102  1.0
  H  H5  1  0.60697093  0.76809584  0.97655033  1.0
  H  H6  1  0.10725421  0.97378879  0.76829103  1.0
  H  H7  1  0.39304438  0.23206215  0.02347478  1.0
