# generated using pymatgen
data_CsScH4
_symmetry_space_group_name_H-M   'P 1'
_cell_length_a   6.44966708
_cell_length_b   5.42981863
_cell_length_c   6.77450692
_cell_angle_alpha   90.00000868
_cell_angle_beta   90.00000118
_cell_angle_gamma   90.68448346
_symmetry_Int_Tables_number   1
_chemical_formula_structural   CsScH4
_chemical_formula_sum   'Cs2 Sc2 H8'
_cell_volume   237.22984224
_cell_formula_units_Z   2
loop_
 _symmetry_equiv_pos_site_id
 _symmetry_equiv_pos_as_xyz
  1  'x, y, z'
loop_
 _atom_site_type_symbol
 _atom_site_label
 _atom_site_symmetry_multiplicity
 _atom_site_fract_x
 _atom_site_fract_y
 _atom_site_fract_z
 _atom_site_occupancy
  Cs  Cs0  1  0.50000092  0.75000002  0.71421054  1.0
  Cs  Cs1  1  0.50000077  0.24999992  0.28578897  1.0
  Sc  Sc2  1  0.99999348  0.25000179  0.85197212  1.0
  Sc  Sc3  1  0.99999389  0.75000108  0.14802882  1.0
  H  H4  1  0.84159440  0.53807016  0.95507350  1.0
  H  H5  1  0.15840798  0.96192860  0.95507354  1.0
  H  H6  1  0.84159406  0.03806994  0.04492652  1.0
  H  H7  1  0.23480197  0.76667310  0.32561486  1.0
  H  H8  1  0.76520177  0.23332690  0.67438656  1.0
  H  H9  1  0.15840823  0.46192872  0.04492618  1.0
  H  H10  1  0.23480142  0.26667297  0.67438505  1.0
  H  H11  1  0.76520110  0.73332680  0.32561332  1.0
