# generated using pymatgen
data_CsTb5O8
_symmetry_space_group_name_H-M   'P 1'
_cell_length_a   8.92134558
_cell_length_b   8.92134559
_cell_length_c   8.54711936
_cell_angle_alpha   74.79639271
_cell_angle_beta   74.79639300
_cell_angle_gamma   22.62843262
_symmetry_Int_Tables_number   1
_chemical_formula_structural   CsTb5O8
_chemical_formula_sum   'Cs1 Tb5 O8'
_cell_volume   252.20131153
_cell_formula_units_Z   1
loop_
 _symmetry_equiv_pos_site_id
 _symmetry_equiv_pos_as_xyz
  1  'x, y, z'
loop_
 _atom_site_type_symbol
 _atom_site_label
 _atom_site_symmetry_multiplicity
 _atom_site_fract_x
 _atom_site_fract_y
 _atom_site_fract_z
 _atom_site_occupancy
  Cs  Cs0  1  0.99999989  0.00000011  0.50000000  1.0
  Tb  Tb1  1  0.00000001  0.99999999  0.00000000  1.0
  Tb  Tb2  1  0.65798333  0.65798335  0.06513925  1.0
  Tb  Tb3  1  0.34201666  0.34201665  0.93486076  1.0
  Tb  Tb4  1  0.69886653  0.69886650  0.66884366  1.0
  Tb  Tb5  1  0.30113350  0.30113347  0.33115634  1.0
  O  O6  1  0.41832069  0.41832065  0.12055432  1.0
  O  O7  1  0.58167934  0.58167932  0.87944567  1.0
  O  O8  1  0.91436823  0.91436824  0.83540027  1.0
  O  O9  1  0.08563178  0.08563175  0.16459974  1.0
  O  O10  1  0.81935727  0.81935723  0.47437722  1.0
  O  O11  1  0.18064277  0.18064275  0.52562278  1.0
  O  O12  1  0.77249871  0.77249872  0.13849773  1.0
  O  O13  1  0.22750128  0.22750128  0.86150227  1.0
