# generated using pymatgen
data_CsTbI4
_symmetry_space_group_name_H-M   'P 1'
_cell_length_a   8.81720254
_cell_length_b   8.32652015
_cell_length_c   8.84146562
_cell_angle_alpha   90.00000002
_cell_angle_beta   89.99999981
_cell_angle_gamma   99.49644126
_symmetry_Int_Tables_number   1
_chemical_formula_structural   CsTbI4
_chemical_formula_sum   'Cs2 Tb2 I8'
_cell_volume   640.21496743
_cell_formula_units_Z   2
loop_
 _symmetry_equiv_pos_site_id
 _symmetry_equiv_pos_as_xyz
  1  'x, y, z'
loop_
 _atom_site_type_symbol
 _atom_site_label
 _atom_site_symmetry_multiplicity
 _atom_site_fract_x
 _atom_site_fract_y
 _atom_site_fract_z
 _atom_site_occupancy
  Cs  Cs0  1  0.00000000  0.75000000  0.77526363  1.0
  Cs  Cs1  1  0.00000000  0.25000000  0.22473635  1.0
  Tb  Tb2  1  0.50000000  0.25000000  0.65332572  1.0
  Tb  Tb3  1  0.50000000  0.75000000  0.34667428  1.0
  I  I4  1  0.70134578  0.98416842  0.58048677  1.0
  I  I5  1  0.29865422  0.51583158  0.58048677  1.0
  I  I6  1  0.29865422  0.01583158  0.41951323  1.0
  I  I7  1  0.70134578  0.48416842  0.41951324  1.0
  I  I8  1  0.27390747  0.62909591  0.11078612  1.0
  I  I9  1  0.72609253  0.87090409  0.11078612  1.0
  I  I10  1  0.72609253  0.37090409  0.88921388  1.0
  I  I11  1  0.27390747  0.12909591  0.88921389  1.0
