# generated using pymatgen
data_CsTlCl2
_symmetry_space_group_name_H-M   'P 1'
_cell_length_a   4.45901934
_cell_length_b   8.46106902
_cell_length_c   8.60250273
_cell_angle_alpha   90.10497036
_cell_angle_beta   90.00032207
_cell_angle_gamma   90.00018994
_symmetry_Int_Tables_number   1
_chemical_formula_structural   CsTlCl2
_chemical_formula_sum   'Cs2 Tl2 Cl4'
_cell_volume   324.55528390
_cell_formula_units_Z   2
loop_
 _symmetry_equiv_pos_site_id
 _symmetry_equiv_pos_as_xyz
  1  'x, y, z'
loop_
 _atom_site_type_symbol
 _atom_site_label
 _atom_site_symmetry_multiplicity
 _atom_site_fract_x
 _atom_site_fract_y
 _atom_site_fract_z
 _atom_site_occupancy
  Cs  Cs0  1  0.99999787  0.01265229  0.24965777  1.0
  Cs  Cs1  1  0.00000261  0.98734779  0.75034224  1.0
  Tl  Tl2  1  0.49998322  0.51198437  0.24953097  1.0
  Tl  Tl3  1  0.50001446  0.48801541  0.75046898  1.0
  Cl  Cl4  1  0.49999862  0.22963224  0.99384128  1.0
  Cl  Cl5  1  0.50000229  0.77036785  0.00615863  1.0
  Cl  Cl6  1  0.49999442  0.76591346  0.49813939  1.0
  Cl  Cl7  1  0.50000650  0.23408660  0.50186074  1.0
