# generated using pymatgen
data_CsTlF2
_symmetry_space_group_name_H-M   'P 1'
_cell_length_a   5.07933682
_cell_length_b   5.07934408
_cell_length_c   5.07933610
_cell_angle_alpha   59.99611743
_cell_angle_beta   59.99618045
_cell_angle_gamma   59.99612031
_symmetry_Int_Tables_number   1
_chemical_formula_structural   CsTlF2
_chemical_formula_sum   'Cs1 Tl1 F2'
_cell_volume   92.65494084
_cell_formula_units_Z   1
loop_
 _symmetry_equiv_pos_site_id
 _symmetry_equiv_pos_as_xyz
  1  'x, y, z'
loop_
 _atom_site_type_symbol
 _atom_site_label
 _atom_site_symmetry_multiplicity
 _atom_site_fract_x
 _atom_site_fract_y
 _atom_site_fract_z
 _atom_site_occupancy
  Cs  Cs0  1  0.49999999  0.49999999  0.50000002  1.0
  Tl  Tl1  1  0.99999995  0.00000000  0.00000005  1.0
  F  F2  1  0.75000049  0.75000050  0.75000018  1.0
  F  F3  1  0.24999956  0.24999951  0.24999976  1.0
