# generated using pymatgen
data_CsTlCl2
_symmetry_space_group_name_H-M   'P 1'
_cell_length_a   5.73934088
_cell_length_b   5.73933952
_cell_length_c   5.73933993
_cell_angle_alpha   59.99999010
_cell_angle_beta   59.99996822
_cell_angle_gamma   59.99996524
_symmetry_Int_Tables_number   1
_chemical_formula_structural   CsTlCl2
_chemical_formula_sum   'Cs1 Tl1 Cl2'
_cell_volume   133.68129251
_cell_formula_units_Z   1
loop_
 _symmetry_equiv_pos_site_id
 _symmetry_equiv_pos_as_xyz
  1  'x, y, z'
loop_
 _atom_site_type_symbol
 _atom_site_label
 _atom_site_symmetry_multiplicity
 _atom_site_fract_x
 _atom_site_fract_y
 _atom_site_fract_z
 _atom_site_occupancy
  Cs  Cs0  1  0.99999994  0.00000002  0.00000000  1.0
  Tl  Tl1  1  0.49999998  0.50000002  0.50000000  1.0
  Cl  Cl2  1  0.75000004  0.74999995  0.75000001  1.0
  Cl  Cl3  1  0.25000004  0.25000001  0.24999998  1.0
