# generated using pymatgen
data_CsVF4
_symmetry_space_group_name_H-M   'P 1'
_cell_length_a   6.05705726
_cell_length_b   7.19135653
_cell_length_c   5.62598229
_cell_angle_alpha   89.64868961
_cell_angle_beta   93.02738025
_cell_angle_gamma   90.64394511
_symmetry_Int_Tables_number   1
_chemical_formula_structural   CsVF4
_chemical_formula_sum   'Cs2 V2 F8'
_cell_volume   244.69789416
_cell_formula_units_Z   2
loop_
 _symmetry_equiv_pos_site_id
 _symmetry_equiv_pos_as_xyz
  1  'x, y, z'
loop_
 _atom_site_type_symbol
 _atom_site_label
 _atom_site_symmetry_multiplicity
 _atom_site_fract_x
 _atom_site_fract_y
 _atom_site_fract_z
 _atom_site_occupancy
  Cs  Cs0  1  0.00404745  0.83075820  0.25094647  1.0
  Cs  Cs1  1  0.99595278  0.16924167  0.74905378  1.0
  V  V2  1  0.50359633  0.38210351  0.25188291  1.0
  V  V3  1  0.49640242  0.61789716  0.74811399  1.0
  F  F4  1  0.27997465  0.21118626  0.33630763  1.0
  F  F5  1  0.72036819  0.21115496  0.16315219  1.0
  F  F6  1  0.72002706  0.78881511  0.66369154  1.0
  F  F7  1  0.27963024  0.78884614  0.83684890  1.0
  F  F8  1  0.33597410  0.58642796  0.42053193  1.0
  F  F9  1  0.64831233  0.59930262  0.08929341  1.0
  F  F10  1  0.66402716  0.41357092  0.57946793  1.0
  F  F11  1  0.35168730  0.40069552  0.91070932  1.0
