# generated using pymatgen
data_CsYI4
_symmetry_space_group_name_H-M   'P 1'
_cell_length_a   7.61958071
_cell_length_b   9.58954708
_cell_length_c   7.62391228
_cell_angle_alpha   89.03894546
_cell_angle_beta   90.00034540
_cell_angle_gamma   89.99900435
_symmetry_Int_Tables_number   1
_chemical_formula_structural   CsYI4
_chemical_formula_sum   'Cs2 Y2 I8'
_cell_volume   556.98815843
_cell_formula_units_Z   2
loop_
 _symmetry_equiv_pos_site_id
 _symmetry_equiv_pos_as_xyz
  1  'x, y, z'
loop_
 _atom_site_type_symbol
 _atom_site_label
 _atom_site_symmetry_multiplicity
 _atom_site_fract_x
 _atom_site_fract_y
 _atom_site_fract_z
 _atom_site_occupancy
  Cs  Cs0  1  0.75807342  0.99999912  0.75000286  1.0
  Cs  Cs1  1  0.24192658  0.00000088  0.24999716  1.0
  Y  Y2  1  0.74922605  0.49999994  0.24999965  1.0
  Y  Y3  1  0.25077395  0.50000006  0.75000034  1.0
  I  I4  1  0.44538468  0.31831714  0.05834571  1.0
  I  I5  1  0.44538303  0.68168274  0.44165521  1.0
  I  I6  1  0.94515334  0.31834049  0.94798044  1.0
  I  I7  1  0.94515290  0.68166087  0.55201737  1.0
  I  I8  1  0.05484665  0.68165951  0.05201956  1.0
  I  I9  1  0.05484711  0.31833915  0.44798264  1.0
  I  I10  1  0.55461697  0.31831724  0.55834478  1.0
  I  I11  1  0.55461531  0.68168285  0.94165429  1.0
