# generated using pymatgen
data_CsYS2
_symmetry_space_group_name_H-M   'P 1'
_cell_length_a   4.37041023
_cell_length_b   8.39337176
_cell_length_c   8.65811286
_cell_angle_alpha   91.15588537
_cell_angle_beta   90.00000148
_cell_angle_gamma   90.00000213
_symmetry_Int_Tables_number   1
_chemical_formula_structural   CsYS2
_chemical_formula_sum   'Cs2 Y2 S4'
_cell_volume   317.53640470
_cell_formula_units_Z   2
loop_
 _symmetry_equiv_pos_site_id
 _symmetry_equiv_pos_as_xyz
  1  'x, y, z'
loop_
 _atom_site_type_symbol
 _atom_site_label
 _atom_site_symmetry_multiplicity
 _atom_site_fract_x
 _atom_site_fract_y
 _atom_site_fract_z
 _atom_site_occupancy
  Cs  Cs0  1  0.00000000  0.00000000  0.00000000  1.0
  Cs  Cs1  1  0.50000001  0.00000000  0.50000000  1.0
  Y  Y2  1  0.49999998  0.59539101  0.81429466  1.0
  Y  Y3  1  0.50000002  0.40460899  0.18570533  1.0
  S  S4  1  0.00000002  0.28169276  0.31019907  1.0
  S  S5  1  0.50000000  0.30207330  0.89941293  1.0
  S  S6  1  0.49999999  0.69792670  0.10058707  1.0
  S  S7  1  0.99999998  0.71830723  0.68980093  1.0
