# generated using pymatgen
data_DyAuCl4
_symmetry_space_group_name_H-M   'P 1'
_cell_length_a   6.56759843
_cell_length_b   6.85301866
_cell_length_c   6.54652706
_cell_angle_alpha   90.15038542
_cell_angle_beta   89.99704526
_cell_angle_gamma   90.00890606
_symmetry_Int_Tables_number   1
_chemical_formula_structural   DyAuCl4
_chemical_formula_sum   'Dy2 Au2 Cl8'
_cell_volume   294.64425006
_cell_formula_units_Z   2
loop_
 _symmetry_equiv_pos_site_id
 _symmetry_equiv_pos_as_xyz
  1  'x, y, z'
loop_
 _atom_site_type_symbol
 _atom_site_label
 _atom_site_symmetry_multiplicity
 _atom_site_fract_x
 _atom_site_fract_y
 _atom_site_fract_z
 _atom_site_occupancy
  Dy  Dy0  1  0.24859188  0.99999767  0.75005034  1.0
  Dy  Dy1  1  0.75141557  0.00000232  0.24994970  1.0
  Au  Au2  1  0.74616167  0.49998307  0.74985536  1.0
  Au  Au3  1  0.25379470  0.50001692  0.25014432  1.0
  Cl  Cl4  1  0.93544663  0.21500916  0.93729977  1.0
  Cl  Cl5  1  0.43586296  0.21574346  0.06175647  1.0
  Cl  Cl6  1  0.43584905  0.78425104  0.43824990  1.0
  Cl  Cl7  1  0.93542711  0.78500537  0.56269384  1.0
  Cl  Cl8  1  0.06458240  0.21500267  0.43730679  1.0
  Cl  Cl9  1  0.56415945  0.21576181  0.56174827  1.0
  Cl  Cl10  1  0.56414565  0.78424381  0.93824545  1.0
  Cl  Cl11  1  0.06456294  0.78498270  0.06269979  1.0
