# generated using pymatgen
data_DyBr2F
_symmetry_space_group_name_H-M   'P 1'
_cell_length_a   4.87773214
_cell_length_b   4.87773193
_cell_length_c   4.87773032
_cell_angle_alpha   59.99995713
_cell_angle_beta   59.99994511
_cell_angle_gamma   59.99995141
_symmetry_Int_Tables_number   1
_chemical_formula_structural   DyBr2F
_chemical_formula_sum   'Dy1 Br2 F1'
_cell_volume   82.06126043
_cell_formula_units_Z   1
loop_
 _symmetry_equiv_pos_site_id
 _symmetry_equiv_pos_as_xyz
  1  'x, y, z'
loop_
 _atom_site_type_symbol
 _atom_site_label
 _atom_site_symmetry_multiplicity
 _atom_site_fract_x
 _atom_site_fract_y
 _atom_site_fract_z
 _atom_site_occupancy
  Dy  Dy0  1  0.49999999  0.50000001  0.50000001  1.0
  Br  Br1  1  0.25000003  0.24999996  0.25000026  1.0
  Br  Br2  1  0.74999995  0.75000011  0.74999973  1.0
  F  F3  1  0.00000003  0.99999992  0.00000000  1.0
