# generated using pymatgen
data_DyCl2F
_symmetry_space_group_name_H-M   'P 1'
_cell_length_a   4.62862266
_cell_length_b   4.62862686
_cell_length_c   4.62863779
_cell_angle_alpha   59.99973872
_cell_angle_beta   59.99957987
_cell_angle_gamma   59.99948792
_symmetry_Int_Tables_number   1
_chemical_formula_structural   DyCl2F
_chemical_formula_sum   'Dy1 Cl2 F1'
_cell_volume   70.11940627
_cell_formula_units_Z   1
loop_
 _symmetry_equiv_pos_site_id
 _symmetry_equiv_pos_as_xyz
  1  'x, y, z'
loop_
 _atom_site_type_symbol
 _atom_site_label
 _atom_site_symmetry_multiplicity
 _atom_site_fract_x
 _atom_site_fract_y
 _atom_site_fract_z
 _atom_site_occupancy
  Dy  Dy0  1  0.75000008  0.75000008  0.75000008  1.0
  Cl  Cl1  1  0.00000007  0.99999991  0.99999974  1.0
  Cl  Cl2  1  0.49999887  0.49999901  0.49999920  1.0
  F  F3  1  0.24999998  0.25000000  0.24999998  1.0
