# generated using pymatgen
data_DyCuCl4
_symmetry_space_group_name_H-M   'P 1'
_cell_length_a   6.96864394
_cell_length_b   6.71013831
_cell_length_c   7.19757394
_cell_angle_alpha   69.88133558
_cell_angle_beta   89.99983844
_cell_angle_gamma   89.99985011
_symmetry_Int_Tables_number   1
_chemical_formula_structural   DyCuCl4
_chemical_formula_sum   'Dy2 Cu2 Cl8'
_cell_volume   316.02632886
_cell_formula_units_Z   2
loop_
 _symmetry_equiv_pos_site_id
 _symmetry_equiv_pos_as_xyz
  1  'x, y, z'
loop_
 _atom_site_type_symbol
 _atom_site_label
 _atom_site_symmetry_multiplicity
 _atom_site_fract_x
 _atom_site_fract_y
 _atom_site_fract_z
 _atom_site_occupancy
  Dy  Dy0  1  0.99999998  0.49999998  0.49999999  1.0
  Dy  Dy1  1  0.50000000  0.99999999  0.50000000  1.0
  Cu  Cu2  1  0.00000005  0.00000015  0.99999992  1.0
  Cu  Cu3  1  0.50000002  0.50000004  0.00000001  1.0
  Cl  Cl4  1  0.63484387  0.19794191  0.13895792  1.0
  Cl  Cl5  1  0.13484274  0.30205920  0.86104108  1.0
  Cl  Cl6  1  0.32921317  0.70849452  0.38756888  1.0
  Cl  Cl7  1  0.82921193  0.79150534  0.61243057  1.0
  Cl  Cl8  1  0.36515612  0.80205813  0.86104207  1.0
  Cl  Cl9  1  0.86515722  0.69794068  0.13895899  1.0
  Cl  Cl10  1  0.67078684  0.29150543  0.61243114  1.0
  Cl  Cl11  1  0.17078804  0.20849462  0.38756943  1.0
