# generated using pymatgen
data_DyCuBr4
_symmetry_space_group_name_H-M   'P 1'
_cell_length_a   7.17402630
_cell_length_b   7.13914068
_cell_length_c   8.82523937
_cell_angle_alpha   89.99714477
_cell_angle_beta   89.99665269
_cell_angle_gamma   69.37292057
_symmetry_Int_Tables_number   1
_chemical_formula_structural   DyCuBr4
_chemical_formula_sum   'Dy2 Cu2 Br8'
_cell_volume   423.02074146
_cell_formula_units_Z   2
loop_
 _symmetry_equiv_pos_site_id
 _symmetry_equiv_pos_as_xyz
  1  'x, y, z'
loop_
 _atom_site_type_symbol
 _atom_site_label
 _atom_site_symmetry_multiplicity
 _atom_site_fract_x
 _atom_site_fract_y
 _atom_site_fract_z
 _atom_site_occupancy
  Dy  Dy0  1  0.00000505  0.24999781  0.12497045  1.0
  Dy  Dy1  1  0.99999339  0.75000236  0.87504534  1.0
  Cu  Cu2  1  0.49997239  0.24999275  0.66879249  1.0
  Cu  Cu3  1  0.50003143  0.75001496  0.33119854  1.0
  Br  Br4  1  0.23906432  0.03905682  0.36551565  1.0
  Br  Br5  1  0.76093238  0.46096613  0.36554440  1.0
  Br  Br6  1  0.76093802  0.96091465  0.63448949  1.0
  Br  Br7  1  0.23907041  0.53905167  0.63446377  1.0
  Br  Br8  1  0.23594901  0.99088552  0.90190095  1.0
  Br  Br9  1  0.76404031  0.50910074  0.90192993  1.0
  Br  Br10  1  0.76402632  0.00909048  0.09808759  1.0
  Br  Br11  1  0.23597696  0.49092611  0.09806139  1.0
