# generated using pymatgen
data_DyH2Cl
_symmetry_space_group_name_H-M   'P 1'
_cell_length_a   9.58626446
_cell_length_b   9.58619461
_cell_length_c   5.67739840
_cell_angle_alpha   60.75055146
_cell_angle_beta   119.24905203
_cell_angle_gamma   67.93592088
_symmetry_Int_Tables_number   1
_chemical_formula_structural   DyH2Cl
_chemical_formula_sum   'Dy4 H8 Cl4'
_cell_volume   234.51772384
_cell_formula_units_Z   4
loop_
 _symmetry_equiv_pos_site_id
 _symmetry_equiv_pos_as_xyz
  1  'x, y, z'
loop_
 _atom_site_type_symbol
 _atom_site_label
 _atom_site_symmetry_multiplicity
 _atom_site_fract_x
 _atom_site_fract_y
 _atom_site_fract_z
 _atom_site_occupancy
  Dy  Dy0  1  0.19210639  0.19209491  0.75000164  1.0
  Dy  Dy1  1  0.43138259  0.43140329  0.74998658  1.0
  Dy  Dy2  1  0.80789354  0.80790516  0.24999782  1.0
  Dy  Dy3  1  0.56861743  0.56859668  0.25001339  1.0
  H  H4  1  0.27048172  0.63895970  0.77709796  1.0
  H  H5  1  0.50797894  0.87190157  0.02502193  1.0
  H  H6  1  0.36101667  0.72955430  0.27702681  1.0
  H  H7  1  0.12808816  0.49203096  0.52501220  1.0
  H  H8  1  0.87191198  0.50796889  0.47498803  1.0
  H  H9  1  0.63898335  0.27044568  0.72297318  1.0
  H  H10  1  0.49202122  0.12809829  0.97497831  1.0
  H  H11  1  0.72951830  0.36104028  0.22290203  1.0
  Cl  Cl12  1  0.70490736  0.70489566  0.75000300  1.0
  Cl  Cl13  1  0.90570485  0.90572503  0.74998326  1.0
  Cl  Cl14  1  0.09429510  0.09427502  0.25001698  1.0
  Cl  Cl15  1  0.29509241  0.29510458  0.24999688  1.0
