# generated using pymatgen
data_DyH2Br
_symmetry_space_group_name_H-M   'P 1'
_cell_length_a   3.91608791
_cell_length_b   6.72950131
_cell_length_c   7.39734322
_cell_angle_alpha   101.74549882
_cell_angle_beta   90.00001163
_cell_angle_gamma   90.00001153
_symmetry_Int_Tables_number   1
_chemical_formula_structural   DyH2Br
_chemical_formula_sum   'Dy2 H4 Br2'
_cell_volume   190.86269093
_cell_formula_units_Z   2
loop_
 _symmetry_equiv_pos_site_id
 _symmetry_equiv_pos_as_xyz
  1  'x, y, z'
loop_
 _atom_site_type_symbol
 _atom_site_label
 _atom_site_symmetry_multiplicity
 _atom_site_fract_x
 _atom_site_fract_y
 _atom_site_fract_z
 _atom_site_occupancy
  Dy  Dy0  1  0.49999993  0.73068873  0.15294149  1.0
  Dy  Dy1  1  0.50000009  0.26931128  0.84705850  1.0
  H  H2  1  0.49999986  0.41747883  0.12830201  1.0
  H  H3  1  0.00000011  0.35577742  0.79447642  1.0
  H  H4  1  0.99999993  0.64422259  0.20552357  1.0
  H  H5  1  0.50000017  0.58252115  0.87169797  1.0
  Br  Br6  1  0.00000002  0.00000001  0.99999999  1.0
  Br  Br7  1  0.49999989  0.99999998  0.50000006  1.0
