# generated using pymatgen
data_DyHgF4
_symmetry_space_group_name_H-M   'P 1'
_cell_length_a   5.40811650
_cell_length_b   6.52480531
_cell_length_c   5.36677468
_cell_angle_alpha   84.12237283
_cell_angle_beta   90.00001152
_cell_angle_gamma   89.99998751
_symmetry_Int_Tables_number   1
_chemical_formula_structural   DyHgF4
_chemical_formula_sum   'Dy2 Hg2 F8'
_cell_volume   188.38130335
_cell_formula_units_Z   2
loop_
 _symmetry_equiv_pos_site_id
 _symmetry_equiv_pos_as_xyz
  1  'x, y, z'
loop_
 _atom_site_type_symbol
 _atom_site_label
 _atom_site_symmetry_multiplicity
 _atom_site_fract_x
 _atom_site_fract_y
 _atom_site_fract_z
 _atom_site_occupancy
  Dy  Dy0  1  0.23807202  0.00000001  0.75000000  1.0
  Dy  Dy1  1  0.76192813  0.99999997  0.25000001  1.0
  Hg  Hg2  1  0.64524545  0.49999998  0.74999954  1.0
  Hg  Hg3  1  0.35475595  0.49999997  0.25000044  1.0
  F  F4  1  0.94340657  0.19523342  0.92875752  1.0
  F  F5  1  0.43626447  0.17503423  0.04223136  1.0
  F  F6  1  0.43626431  0.82496616  0.45776843  1.0
  F  F7  1  0.94340674  0.80476656  0.57124251  1.0
  F  F8  1  0.05659557  0.19522780  0.42875579  1.0
  F  F9  1  0.56373263  0.17503684  0.54222689  1.0
  F  F10  1  0.56373246  0.82496284  0.95777329  1.0
  F  F11  1  0.05659568  0.80477223  0.07124420  1.0
