# generated using pymatgen
data_DyHgCl4
_symmetry_space_group_name_H-M   'P 1'
_cell_length_a   6.57432097
_cell_length_b   7.53529204
_cell_length_c   6.57855110
_cell_angle_alpha   87.71364095
_cell_angle_beta   89.99538027
_cell_angle_gamma   90.00471783
_symmetry_Int_Tables_number   1
_chemical_formula_structural   DyHgCl4
_chemical_formula_sum   'Dy2 Hg2 Cl8'
_cell_volume   325.63821926
_cell_formula_units_Z   2
loop_
 _symmetry_equiv_pos_site_id
 _symmetry_equiv_pos_as_xyz
  1  'x, y, z'
loop_
 _atom_site_type_symbol
 _atom_site_label
 _atom_site_symmetry_multiplicity
 _atom_site_fract_x
 _atom_site_fract_y
 _atom_site_fract_z
 _atom_site_occupancy
  Dy  Dy0  1  0.25471592  0.00000081  0.75001144  1.0
  Dy  Dy1  1  0.74529154  0.99999908  0.24998850  1.0
  Hg  Hg2  1  0.74772535  0.50000304  0.75000378  1.0
  Hg  Hg3  1  0.25230538  0.49999693  0.24999619  1.0
  Cl  Cl4  1  0.94364062  0.19292544  0.93162017  1.0
  Cl  Cl5  1  0.44494375  0.19894671  0.04596137  1.0
  Cl  Cl6  1  0.44492512  0.80105728  0.45404696  1.0
  Cl  Cl7  1  0.94361698  0.80707621  0.56837952  1.0
  Cl  Cl8  1  0.05634941  0.19261310  0.43166149  1.0
  Cl  Cl9  1  0.55508940  0.19919197  0.54597716  1.0
  Cl  Cl10  1  0.55507078  0.80080416  0.95401456  1.0
  Cl  Cl11  1  0.05632576  0.80738527  0.06833884  1.0
