# generated using pymatgen
data_DySBr
_symmetry_space_group_name_H-M   'P 1'
_cell_length_a   8.26111467
_cell_length_b   8.26107671
_cell_length_c   8.26113597
_cell_angle_alpha   60.00000262
_cell_angle_beta   59.99966162
_cell_angle_gamma   60.00037517
_symmetry_Int_Tables_number   1
_chemical_formula_structural   DySBr
_chemical_formula_sum   'Dy4 S4 Br4'
_cell_volume   398.65774623
_cell_formula_units_Z   4
loop_
 _symmetry_equiv_pos_site_id
 _symmetry_equiv_pos_as_xyz
  1  'x, y, z'
loop_
 _atom_site_type_symbol
 _atom_site_label
 _atom_site_symmetry_multiplicity
 _atom_site_fract_x
 _atom_site_fract_y
 _atom_site_fract_z
 _atom_site_occupancy
  Dy  Dy0  1  0.59150670  0.13616528  0.13616297  1.0
  Dy  Dy1  1  0.13616355  0.59150805  0.13616352  1.0
  Dy  Dy2  1  0.13616296  0.13616399  0.13616536  1.0
  Dy  Dy3  1  0.13616450  0.13616436  0.59150715  1.0
  S  S4  1  0.36226375  0.36226474  0.36226142  1.0
  S  S5  1  0.91320900  0.36226259  0.36226478  1.0
  S  S6  1  0.36226291  0.36226392  0.91320937  1.0
  S  S7  1  0.36226215  0.91321068  0.36226344  1.0
  Br  Br8  1  0.35444347  0.88185264  0.88185250  1.0
  Br  Br9  1  0.88185285  0.88185042  0.88185337  1.0
  Br  Br10  1  0.88185486  0.35444256  0.88185178  1.0
  Br  Br11  1  0.88185130  0.88185078  0.35444336  1.0
