# generated using pymatgen
data_DySeI
_symmetry_space_group_name_H-M   'P 1'
_cell_length_a   8.65402140
_cell_length_b   8.65402201
_cell_length_c   8.65402287
_cell_angle_alpha   59.99998729
_cell_angle_beta   60.00000419
_cell_angle_gamma   60.00000360
_symmetry_Int_Tables_number   1
_chemical_formula_structural   DySeI
_chemical_formula_sum   'Dy4 Se4 I4'
_cell_volume   458.28852674
_cell_formula_units_Z   4
loop_
 _symmetry_equiv_pos_site_id
 _symmetry_equiv_pos_as_xyz
  1  'x, y, z'
loop_
 _atom_site_type_symbol
 _atom_site_label
 _atom_site_symmetry_multiplicity
 _atom_site_fract_x
 _atom_site_fract_y
 _atom_site_fract_z
 _atom_site_occupancy
  Dy  Dy0  1  0.61207294  0.61207301  0.61207290  1.0
  Dy  Dy1  1  0.61207296  0.16378138  0.61207290  1.0
  Dy  Dy2  1  0.61207298  0.61207291  0.16378149  1.0
  Dy  Dy3  1  0.16378140  0.61207298  0.61207292  1.0
  Se  Se4  1  0.38519676  0.84441004  0.38519682  1.0
  Se  Se5  1  0.84441014  0.38519675  0.38519676  1.0
  Se  Se6  1  0.38519675  0.38519683  0.84441010  1.0
  Se  Se7  1  0.38519675  0.38519679  0.38519670  1.0
  I  I8  1  0.87293132  0.87293142  0.87293145  1.0
  I  I9  1  0.87293144  0.87293135  0.38120614  1.0
  I  I10  1  0.87293143  0.38120611  0.87293139  1.0
  I  I11  1  0.38120612  0.87293144  0.87293144  1.0
