# generated using pymatgen
data_DyTlF4
_symmetry_space_group_name_H-M   'P 1'
_cell_length_a   6.20324254
_cell_length_b   5.52195173
_cell_length_c   5.57114580
_cell_angle_alpha   89.99997796
_cell_angle_beta   89.99997504
_cell_angle_gamma   93.12163874
_symmetry_Int_Tables_number   1
_chemical_formula_structural   DyTlF4
_chemical_formula_sum   'Dy2 Tl2 F8'
_cell_volume   190.55089668
_cell_formula_units_Z   2
loop_
 _symmetry_equiv_pos_site_id
 _symmetry_equiv_pos_as_xyz
  1  'x, y, z'
loop_
 _atom_site_type_symbol
 _atom_site_label
 _atom_site_symmetry_multiplicity
 _atom_site_fract_x
 _atom_site_fract_y
 _atom_site_fract_z
 _atom_site_occupancy
  Dy  Dy0  1  0.49999999  0.24999995  0.74967295  1.0
  Dy  Dy1  1  0.50000001  0.75000005  0.25032705  1.0
  Tl  Tl2  1  0.00000008  0.75000007  0.74952983  1.0
  Tl  Tl3  1  0.99999992  0.24999993  0.25047018  1.0
  F  F4  1  0.69627510  0.99869705  0.50928770  1.0
  F  F5  1  0.30372481  0.50130276  0.50928860  1.0
  F  F6  1  0.30372490  0.00130295  0.49071231  1.0
  F  F7  1  0.69627519  0.49869724  0.49071139  1.0
  F  F8  1  0.30357114  0.49899072  0.99798015  1.0
  F  F9  1  0.69642893  0.00100915  0.99797862  1.0
  F  F10  1  0.69642886  0.50100928  0.00201984  1.0
  F  F11  1  0.30357107  0.99899084  0.00202138  1.0
