# generated using pymatgen
data_DyTlCl4
_symmetry_space_group_name_H-M   'P 1'
_cell_length_a   7.90363540
_cell_length_b   7.30287474
_cell_length_c   7.15970036
_cell_angle_alpha   95.06049873
_cell_angle_beta   90.00324415
_cell_angle_gamma   90.02034790
_symmetry_Int_Tables_number   1
_chemical_formula_structural   DyTlCl4
_chemical_formula_sum   'Dy2 Tl2 Cl8'
_cell_volume   411.64176296
_cell_formula_units_Z   2
loop_
 _symmetry_equiv_pos_site_id
 _symmetry_equiv_pos_as_xyz
  1  'x, y, z'
loop_
 _atom_site_type_symbol
 _atom_site_label
 _atom_site_symmetry_multiplicity
 _atom_site_fract_x
 _atom_site_fract_y
 _atom_site_fract_z
 _atom_site_occupancy
  Dy  Dy0  1  0.14853938  0.00008952  0.74999746  1.0
  Dy  Dy1  1  0.85146088  0.99991045  0.25000408  1.0
  Tl  Tl2  1  0.66835934  0.50000067  0.74992212  1.0
  Tl  Tl3  1  0.33164059  0.49999932  0.25007830  1.0
  Cl  Cl4  1  0.90689179  0.19842333  0.95605951  1.0
  Cl  Cl5  1  0.37070137  0.23533031  0.87680534  1.0
  Cl  Cl6  1  0.37079046  0.76462477  0.62319774  1.0
  Cl  Cl7  1  0.90691560  0.80161330  0.54395629  1.0
  Cl  Cl8  1  0.09308398  0.19838711  0.45604281  1.0
  Cl  Cl9  1  0.62920964  0.23537463  0.37680223  1.0
  Cl  Cl10  1  0.62929849  0.76466955  0.12319431  1.0
  Cl  Cl11  1  0.09310848  0.80157704  0.04393982  1.0
