# generated using pymatgen
data_ErAlN2
_symmetry_space_group_name_H-M   'P 1'
_cell_length_a   5.34180602
_cell_length_b   5.47893296
_cell_length_c   7.56145466
_cell_angle_alpha   105.96028953
_cell_angle_beta   105.26860047
_cell_angle_gamma   104.40848992
_symmetry_Int_Tables_number   1
_chemical_formula_structural   ErAlN2
_chemical_formula_sum   'Er4 Al4 N8'
_cell_volume   192.55815254
_cell_formula_units_Z   4
loop_
 _symmetry_equiv_pos_site_id
 _symmetry_equiv_pos_as_xyz
  1  'x, y, z'
loop_
 _atom_site_type_symbol
 _atom_site_label
 _atom_site_symmetry_multiplicity
 _atom_site_fract_x
 _atom_site_fract_y
 _atom_site_fract_z
 _atom_site_occupancy
  Er  Er0  1  0.31328929  0.56358956  0.62645604  1.0
  Er  Er1  1  0.68671076  0.43641053  0.37354386  1.0
  Er  Er2  1  0.05608783  0.30626069  0.11277861  1.0
  Er  Er3  1  0.94391204  0.69373881  0.88722111  1.0
  Al  Al4  1  0.39937063  0.14950990  0.79818481  1.0
  Al  Al5  1  0.17560410  0.92568686  0.35138103  1.0
  Al  Al6  1  0.60062935  0.85049017  0.20181518  1.0
  Al  Al7  1  0.82439568  0.07431294  0.64861866  1.0
  N  N8  1  0.05397073  0.83700470  0.62826560  1.0
  N  N9  1  0.57427648  0.29137626  0.62801224  1.0
  N  N10  1  0.94602924  0.16299520  0.37173467  1.0
  N  N11  1  0.42572391  0.70862437  0.37198814  1.0
  N  N12  1  0.82184987  0.61690573  0.15019406  1.0
  N  N13  1  0.67213131  0.96731078  0.84949887  1.0
  N  N14  1  0.17815013  0.38309419  0.84980595  1.0
  N  N15  1  0.32786865  0.03268933  0.15050117  1.0
