# generated using pymatgen
data_ErH2Cl
_symmetry_space_group_name_H-M   'P 1'
_cell_length_a   3.79726462
_cell_length_b   3.79726296
_cell_length_c   5.22551322
_cell_angle_alpha   90.00000906
_cell_angle_beta   90.00002145
_cell_angle_gamma   120.00002012
_symmetry_Int_Tables_number   1
_chemical_formula_structural   ErH2Cl
_chemical_formula_sum   'Er1 H2 Cl1'
_cell_volume   65.25308222
_cell_formula_units_Z   1
loop_
 _symmetry_equiv_pos_site_id
 _symmetry_equiv_pos_as_xyz
  1  'x, y, z'
loop_
 _atom_site_type_symbol
 _atom_site_label
 _atom_site_symmetry_multiplicity
 _atom_site_fract_x
 _atom_site_fract_y
 _atom_site_fract_z
 _atom_site_occupancy
  Er  Er0  1  0.99999807  0.99999865  0.49999926  1.0
  H  H1  1  0.66666667  0.33333333  0.50062673  1.0
  H  H2  1  0.33333333  0.66666667  0.49937441  1.0
  Cl  Cl3  1  0.99999999  0.00000068  0.99999960  1.0
