# generated using pymatgen
data_ErI2F
_symmetry_space_group_name_H-M   'P 1'
_cell_length_a   5.44370457
_cell_length_b   5.44398845
_cell_length_c   4.35585794
_cell_angle_alpha   90.00158390
_cell_angle_beta   90.00968549
_cell_angle_gamma   119.99250769
_symmetry_Int_Tables_number   1
_chemical_formula_structural   ErI2F
_chemical_formula_sum   'Er1 I2 F1'
_cell_volume   111.80181542
_cell_formula_units_Z   1
loop_
 _symmetry_equiv_pos_site_id
 _symmetry_equiv_pos_as_xyz
  1  'x, y, z'
loop_
 _atom_site_type_symbol
 _atom_site_label
 _atom_site_symmetry_multiplicity
 _atom_site_fract_x
 _atom_site_fract_y
 _atom_site_fract_z
 _atom_site_occupancy
  Er  Er0  1  0.00000095  0.00000075  0.00000024  1.0
  I  I1  1  0.66666667  0.33333333  0.79718860  1.0
  I  I2  1  0.33333333  0.66666667  0.20281119  1.0
  F  F3  1  0.99999981  0.00000059  0.49999996  1.0
