# generated using pymatgen
data_ErNbO4
_symmetry_space_group_name_H-M   'P 1'
_cell_length_a   5.12300861
_cell_length_b   5.32976405
_cell_length_c   5.45394474
_cell_angle_alpha   89.99655086
_cell_angle_beta   90.00503280
_cell_angle_gamma   84.32862508
_symmetry_Int_Tables_number   1
_chemical_formula_structural   ErNbO4
_chemical_formula_sum   'Er2 Nb2 O8'
_cell_volume   148.18789766
_cell_formula_units_Z   2
loop_
 _symmetry_equiv_pos_site_id
 _symmetry_equiv_pos_as_xyz
  1  'x, y, z'
loop_
 _atom_site_type_symbol
 _atom_site_label
 _atom_site_symmetry_multiplicity
 _atom_site_fract_x
 _atom_site_fract_y
 _atom_site_fract_z
 _atom_site_occupancy
  Er  Er0  1  0.99998941  0.25001501  0.75932436  1.0
  Er  Er1  1  0.00001034  0.74998508  0.24067524  1.0
  Nb  Nb2  1  0.50000365  0.25002606  0.29467777  1.0
  Nb  Nb3  1  0.49999666  0.74997378  0.70532192  1.0
  O  O4  1  0.26073843  0.51769019  0.55971539  1.0
  O  O5  1  0.73926141  0.98231904  0.55971894  1.0
  O  O6  1  0.75089242  0.09228164  0.07627653  1.0
  O  O7  1  0.24911586  0.40770920  0.07628593  1.0
  O  O8  1  0.24910750  0.90771844  0.92372311  1.0
  O  O9  1  0.75088395  0.59229084  0.92371374  1.0
  O  O10  1  0.26073870  0.01768087  0.44028069  1.0
  O  O11  1  0.73926165  0.48230986  0.44028440  1.0
