# generated using pymatgen
data_ErSbO4
_symmetry_space_group_name_H-M   'P 1'
_cell_length_a   5.11218899
_cell_length_b   5.35858002
_cell_length_c   5.68421576
_cell_angle_alpha   90.00008963
_cell_angle_beta   90.00601834
_cell_angle_gamma   84.19347226
_symmetry_Int_Tables_number   1
_chemical_formula_structural   ErSbO4
_chemical_formula_sum   'Er2 Sb2 O8'
_cell_volume   154.91488684
_cell_formula_units_Z   2
loop_
 _symmetry_equiv_pos_site_id
 _symmetry_equiv_pos_as_xyz
  1  'x, y, z'
loop_
 _atom_site_type_symbol
 _atom_site_label
 _atom_site_symmetry_multiplicity
 _atom_site_fract_x
 _atom_site_fract_y
 _atom_site_fract_z
 _atom_site_occupancy
  Er  Er0  1  0.99999259  0.25001392  0.80395415  1.0
  Er  Er1  1  0.00000692  0.74998618  0.19604539  1.0
  Sb  Sb2  1  0.49998946  0.25002092  0.33014108  1.0
  Sb  Sb3  1  0.50001186  0.74997874  0.66985859  1.0
  O  O4  1  0.28099968  0.46072476  0.58546528  1.0
  O  O5  1  0.71899712  0.03927037  0.58548037  1.0
  O  O6  1  0.75875136  0.10431407  0.10523778  1.0
  O  O7  1  0.24125812  0.39567820  0.10524277  1.0
  O  O8  1  0.24124838  0.89568619  0.89476200  1.0
  O  O9  1  0.75874157  0.60432197  0.89475673  1.0
  O  O10  1  0.28100274  0.96072951  0.41451921  1.0
  O  O11  1  0.71900019  0.53927516  0.41453463  1.0
