# generated using pymatgen
data_ErSeBr
_symmetry_space_group_name_H-M   'P 1'
_cell_length_a   4.91597155
_cell_length_b   4.91597582
_cell_length_c   4.91597205
_cell_angle_alpha   60.00006801
_cell_angle_beta   59.99983766
_cell_angle_gamma   60.00004478
_symmetry_Int_Tables_number   1
_chemical_formula_structural   ErSeBr
_chemical_formula_sum   'Er1 Se1 Br1'
_cell_volume   84.00658755
_cell_formula_units_Z   1
loop_
 _symmetry_equiv_pos_site_id
 _symmetry_equiv_pos_as_xyz
  1  'x, y, z'
loop_
 _atom_site_type_symbol
 _atom_site_label
 _atom_site_symmetry_multiplicity
 _atom_site_fract_x
 _atom_site_fract_y
 _atom_site_fract_z
 _atom_site_occupancy
  Er  Er0  1  0.99999928  0.99999973  0.00000087  1.0
  Se  Se1  1  0.25000041  0.25000002  0.24999962  1.0
  Br  Br2  1  0.50000031  0.50000025  0.49999952  1.0
