# generated using pymatgen
data_ErSeI
_symmetry_space_group_name_H-M   'P 1'
_cell_length_a   8.58040787
_cell_length_b   8.58039924
_cell_length_c   8.58040644
_cell_angle_alpha   60.00000957
_cell_angle_beta   59.99988344
_cell_angle_gamma   60.00008190
_symmetry_Int_Tables_number   1
_chemical_formula_structural   ErSeI
_chemical_formula_sum   'Er4 Se4 I4'
_cell_volume   446.69203465
_cell_formula_units_Z   4
loop_
 _symmetry_equiv_pos_site_id
 _symmetry_equiv_pos_as_xyz
  1  'x, y, z'
loop_
 _atom_site_type_symbol
 _atom_site_label
 _atom_site_symmetry_multiplicity
 _atom_site_fract_x
 _atom_site_fract_y
 _atom_site_fract_z
 _atom_site_occupancy
  Er  Er0  1  0.61177266  0.61177284  0.61177292  1.0
  Er  Er1  1  0.61177187  0.16468370  0.61177275  1.0
  Er  Er2  1  0.61177287  0.61177211  0.16468311  1.0
  Er  Er3  1  0.16468159  0.61177279  0.61177282  1.0
  Se  Se4  1  0.38468632  0.84594180  0.38468575  1.0
  Se  Se5  1  0.84594241  0.38468539  0.38468638  1.0
  Se  Se6  1  0.38468654  0.38468590  0.84594221  1.0
  Se  Se7  1  0.38468653  0.38468610  0.38468532  1.0
  I  I8  1  0.87274523  0.87274515  0.87274505  1.0
  I  I9  1  0.87274536  0.87274548  0.38176407  1.0
  I  I10  1  0.87274562  0.38176418  0.87274527  1.0
  I  I11  1  0.38176399  0.87274556  0.87274534  1.0
