# generated using pymatgen
data_ErTlF4
_symmetry_space_group_name_H-M   'P 1'
_cell_length_a   6.53111772
_cell_length_b   6.25719658
_cell_length_c   5.98280912
_cell_angle_alpha   92.69207807
_cell_angle_beta   90.00141768
_cell_angle_gamma   90.00071873
_symmetry_Int_Tables_number   1
_chemical_formula_structural   ErTlF4
_chemical_formula_sum   'Er2 Tl2 F8'
_cell_volume   244.22656232
_cell_formula_units_Z   2
loop_
 _symmetry_equiv_pos_site_id
 _symmetry_equiv_pos_as_xyz
  1  'x, y, z'
loop_
 _atom_site_type_symbol
 _atom_site_label
 _atom_site_symmetry_multiplicity
 _atom_site_fract_x
 _atom_site_fract_y
 _atom_site_fract_z
 _atom_site_occupancy
  Er  Er0  1  0.16393723  0.00000249  0.75000025  1.0
  Er  Er1  1  0.83606246  0.99999778  0.24999964  1.0
  Tl  Tl2  1  0.68673643  0.49999957  0.75000088  1.0
  Tl  Tl3  1  0.31326282  0.50000044  0.24999908  1.0
  F  F4  1  0.91913195  0.17821330  0.95463556  1.0
  F  F5  1  0.37234258  0.23194028  0.86690798  1.0
  F  F6  1  0.37234284  0.76806081  0.63309245  1.0
  F  F7  1  0.91913127  0.82178699  0.54536028  1.0
  F  F8  1  0.08086897  0.17821362  0.45463984  1.0
  F  F9  1  0.62765810  0.23193938  0.36690883  1.0
  F  F10  1  0.62765841  0.76805868  0.13309102  1.0
  F  F11  1  0.08086693  0.82178666  0.04536419  1.0
