# generated using pymatgen
data_ErTlI4
_symmetry_space_group_name_H-M   'P 1'
_cell_length_a   8.91279620
_cell_length_b   7.97865353
_cell_length_c   8.01723098
_cell_angle_alpha   94.53171469
_cell_angle_beta   90.00005894
_cell_angle_gamma   89.99961413
_symmetry_Int_Tables_number   1
_chemical_formula_structural   ErTlI4
_chemical_formula_sum   'Er2 Tl2 I8'
_cell_volume   568.33989073
_cell_formula_units_Z   2
loop_
 _symmetry_equiv_pos_site_id
 _symmetry_equiv_pos_as_xyz
  1  'x, y, z'
loop_
 _atom_site_type_symbol
 _atom_site_label
 _atom_site_symmetry_multiplicity
 _atom_site_fract_x
 _atom_site_fract_y
 _atom_site_fract_z
 _atom_site_occupancy
  Er  Er0  1  0.13965518  0.00000313  0.74999950  1.0
  Er  Er1  1  0.86034580  0.99999724  0.25000048  1.0
  Tl  Tl2  1  0.65223865  0.50000029  0.75000028  1.0
  Tl  Tl3  1  0.34776133  0.49999966  0.24999946  1.0
  I  I4  1  0.89755376  0.20972902  0.95031682  1.0
  I  I5  1  0.37102273  0.23552504  0.88701012  1.0
  I  I6  1  0.37102575  0.76447040  0.61298743  1.0
  I  I7  1  0.89755605  0.79027445  0.54968594  1.0
  I  I8  1  0.10244355  0.20972618  0.45031422  1.0
  I  I9  1  0.62897356  0.23552867  0.38701243  1.0
  I  I10  1  0.62897740  0.76447484  0.11298998  1.0
  I  I11  1  0.10244624  0.79027108  0.04968333  1.0
