# generated using pymatgen
data_EuMgH4
_symmetry_space_group_name_H-M   'P 1'
_cell_length_a   5.15211114
_cell_length_b   5.36497494
_cell_length_c   5.42489170
_cell_angle_alpha   89.99991753
_cell_angle_beta   90.00000872
_cell_angle_gamma   96.07582516
_symmetry_Int_Tables_number   1
_chemical_formula_structural   EuMgH4
_chemical_formula_sum   'Eu2 Mg2 H8'
_cell_volume   149.10683422
_cell_formula_units_Z   2
loop_
 _symmetry_equiv_pos_site_id
 _symmetry_equiv_pos_as_xyz
  1  'x, y, z'
loop_
 _atom_site_type_symbol
 _atom_site_label
 _atom_site_symmetry_multiplicity
 _atom_site_fract_x
 _atom_site_fract_y
 _atom_site_fract_z
 _atom_site_occupancy
  Eu  Eu0  1  0.99999949  0.75000106  0.75881317  1.0
  Eu  Eu1  1  0.99999996  0.25000086  0.24118559  1.0
  Mg  Mg2  1  0.49999991  0.25000036  0.69657940  1.0
  Mg  Mg3  1  0.49999924  0.75000048  0.30342058  1.0
  H  H4  1  0.73149840  0.01087745  0.54847691  1.0
  H  H5  1  0.26849856  0.48912416  0.54847682  1.0
  H  H6  1  0.26850016  0.98912405  0.45152294  1.0
  H  H7  1  0.73149810  0.51087752  0.45152431  1.0
  H  H8  1  0.25091173  0.59722876  0.07862435  1.0
  H  H9  1  0.74909233  0.90276906  0.07862752  1.0
  H  H10  1  0.74909236  0.40276832  0.92137374  1.0
  H  H11  1  0.25091276  0.09722893  0.92137666  1.0
