# generated using pymatgen
data_EuTmBr4
_symmetry_space_group_name_H-M   'P 1'
_cell_length_a   7.08676346
_cell_length_b   7.00453487
_cell_length_c   8.22169479
_cell_angle_alpha   90.00384468
_cell_angle_beta   89.99814970
_cell_angle_gamma   94.00244465
_symmetry_Int_Tables_number   1
_chemical_formula_structural   EuTmBr4
_chemical_formula_sum   'Eu2 Tm2 Br8'
_cell_volume   407.12529108
_cell_formula_units_Z   2
loop_
 _symmetry_equiv_pos_site_id
 _symmetry_equiv_pos_as_xyz
  1  'x, y, z'
loop_
 _atom_site_type_symbol
 _atom_site_label
 _atom_site_symmetry_multiplicity
 _atom_site_fract_x
 _atom_site_fract_y
 _atom_site_fract_z
 _atom_site_occupancy
  Eu  Eu0  1  0.00000524  0.74999350  0.85990166  1.0
  Eu  Eu1  1  0.99999558  0.25000639  0.14295637  1.0
  Tm  Tm2  1  0.49999708  0.75003927  0.39645858  1.0
  Tm  Tm3  1  0.50000212  0.24996087  0.60420225  1.0
  Br  Br4  1  0.74127758  0.39347629  0.87012102  1.0
  Br  Br5  1  0.25933387  0.60665157  0.12912262  1.0
  Br  Br6  1  0.25872313  0.10652111  0.87012197  1.0
  Br  Br7  1  0.74066716  0.89335117  0.12912354  1.0
  Br  Br8  1  0.74675044  0.93995813  0.62220914  1.0
  Br  Br9  1  0.25565016  0.05996677  0.37678642  1.0
  Br  Br10  1  0.25328426  0.56001924  0.62219332  1.0
  Br  Br11  1  0.74431339  0.44005570  0.37680311  1.0
