# generated using pymatgen
data_GaH2F
_symmetry_space_group_name_H-M   'P 1'
_cell_length_a   3.67560078
_cell_length_b   3.67560044
_cell_length_c   3.67560024
_cell_angle_alpha   59.99985571
_cell_angle_beta   59.99985063
_cell_angle_gamma   59.99983651
_symmetry_Int_Tables_number   1
_chemical_formula_structural   GaH2F
_chemical_formula_sum   'Ga1 H2 F1'
_cell_volume   35.11303770
_cell_formula_units_Z   1
loop_
 _symmetry_equiv_pos_site_id
 _symmetry_equiv_pos_as_xyz
  1  'x, y, z'
loop_
 _atom_site_type_symbol
 _atom_site_label
 _atom_site_symmetry_multiplicity
 _atom_site_fract_x
 _atom_site_fract_y
 _atom_site_fract_z
 _atom_site_occupancy
  Ga  Ga0  1  0.50000015  0.50000011  0.49999979  1.0
  H  H1  1  0.24999988  0.24999986  0.24999998  1.0
  H  H2  1  0.75000002  0.75000004  0.75000018  1.0
  F  F3  1  0.99999995  0.00000000  0.00000004  1.0
