# generated using pymatgen
data_GaH2Cl
_symmetry_space_group_name_H-M   'P 1'
_cell_length_a   3.49791678
_cell_length_b   7.92217476
_cell_length_c   6.04355486
_cell_angle_alpha   87.16806818
_cell_angle_beta   89.97986864
_cell_angle_gamma   90.00043165
_symmetry_Int_Tables_number   1
_chemical_formula_structural   GaH2Cl
_chemical_formula_sum   'Ga2 H4 Cl2'
_cell_volume   167.26906534
_cell_formula_units_Z   2
loop_
 _symmetry_equiv_pos_site_id
 _symmetry_equiv_pos_as_xyz
  1  'x, y, z'
loop_
 _atom_site_type_symbol
 _atom_site_label
 _atom_site_symmetry_multiplicity
 _atom_site_fract_x
 _atom_site_fract_y
 _atom_site_fract_z
 _atom_site_occupancy
  Ga  Ga0  1  0.99992651  0.63517513  0.24075104  1.0
  Ga  Ga1  1  0.00007269  0.36459599  0.75926583  1.0
  H  H2  1  0.49999181  0.02987102  0.04645634  1.0
  H  H3  1  0.50000836  0.97006357  0.95355045  1.0
  H  H4  1  0.49999371  0.96195166  0.53982980  1.0
  H  H5  1  0.50000692  0.03798647  0.46017393  1.0
  Cl  Cl6  1  0.49991135  0.38200040  0.25445624  1.0
  Cl  Cl7  1  0.50008865  0.61835577  0.74551638  1.0
