# generated using pymatgen
data_GdBr2F
_symmetry_space_group_name_H-M   'P 1'
_cell_length_a   5.02649291
_cell_length_b   5.02653384
_cell_length_c   4.48253565
_cell_angle_alpha   89.99874435
_cell_angle_beta   89.98759450
_cell_angle_gamma   119.98450378
_symmetry_Int_Tables_number   1
_chemical_formula_structural   GdBr2F
_chemical_formula_sum   'Gd1 Br2 F1'
_cell_volume   98.09702752
_cell_formula_units_Z   1
loop_
 _symmetry_equiv_pos_site_id
 _symmetry_equiv_pos_as_xyz
  1  'x, y, z'
loop_
 _atom_site_type_symbol
 _atom_site_label
 _atom_site_symmetry_multiplicity
 _atom_site_fract_x
 _atom_site_fract_y
 _atom_site_fract_z
 _atom_site_occupancy
  Gd  Gd0  1  0.99999975  0.00000005  0.49999983  1.0
  Br  Br1  1  0.33314119  0.66646050  0.29916095  1.0
  Br  Br2  1  0.66685882  0.33353932  0.70083998  1.0
  F  F3  1  0.00000025  0.00000013  0.99999924  1.0
