# generated using pymatgen
data_GdSCl
_symmetry_space_group_name_H-M   'P 1'
_cell_length_a   8.21429066
_cell_length_b   8.21429464
_cell_length_c   8.21429467
_cell_angle_alpha   59.99994755
_cell_angle_beta   59.99993006
_cell_angle_gamma   60.00000467
_symmetry_Int_Tables_number   1
_chemical_formula_structural   GdSCl
_chemical_formula_sum   'Gd4 S4 Cl4'
_cell_volume   391.91802391
_cell_formula_units_Z   4
loop_
 _symmetry_equiv_pos_site_id
 _symmetry_equiv_pos_as_xyz
  1  'x, y, z'
loop_
 _atom_site_type_symbol
 _atom_site_label
 _atom_site_symmetry_multiplicity
 _atom_site_fract_x
 _atom_site_fract_y
 _atom_site_fract_z
 _atom_site_occupancy
  Gd  Gd0  1  0.36660618  0.36660630  0.36660629  1.0
  Gd  Gd1  1  0.36660580  0.36660587  0.90018282  1.0
  Gd  Gd2  1  0.36660623  0.90018065  0.36660686  1.0
  Gd  Gd3  1  0.90018070  0.36660621  0.36660685  1.0
  S  S4  1  0.13665375  0.13665362  0.13665450  1.0
  S  S5  1  0.13665400  0.13665386  0.59003843  1.0
  S  S6  1  0.13665394  0.59003887  0.13665395  1.0
  S  S7  1  0.59003889  0.13665390  0.13665400  1.0
  Cl  Cl8  1  0.61121144  0.61121088  0.61121062  1.0
  Cl  Cl9  1  0.61121154  0.61121096  0.16636520  1.0
  Cl  Cl10  1  0.61121029  0.16636848  0.61120993  1.0
  Cl  Cl11  1  0.16636726  0.61121038  0.61121054  1.0
