# generated using pymatgen
data_GdTlF4
_symmetry_space_group_name_H-M   'P 1'
_cell_length_a   6.62226911
_cell_length_b   5.60021785
_cell_length_c   5.61075811
_cell_angle_alpha   89.99999958
_cell_angle_beta   90.00001664
_cell_angle_gamma   91.16873235
_symmetry_Int_Tables_number   1
_chemical_formula_structural   GdTlF4
_chemical_formula_sum   'Gd2 Tl2 F8'
_cell_volume   208.03812651
_cell_formula_units_Z   2
loop_
 _symmetry_equiv_pos_site_id
 _symmetry_equiv_pos_as_xyz
  1  'x, y, z'
loop_
 _atom_site_type_symbol
 _atom_site_label
 _atom_site_symmetry_multiplicity
 _atom_site_fract_x
 _atom_site_fract_y
 _atom_site_fract_z
 _atom_site_occupancy
  Gd  Gd0  1  0.00000001  0.74999999  0.75035773  1.0
  Gd  Gd1  1  0.99999999  0.24999999  0.24964227  1.0
  Tl  Tl2  1  0.50000000  0.24999991  0.74623744  1.0
  Tl  Tl3  1  0.50000000  0.75000012  0.25376259  1.0
  F  F4  1  0.80808813  0.01382294  0.52130495  1.0
  F  F5  1  0.19191184  0.48617700  0.52130535  1.0
  F  F6  1  0.19191175  0.98617703  0.47869503  1.0
  F  F7  1  0.80808827  0.51382302  0.47869465  1.0
  F  F8  1  0.19239460  0.51999442  0.01954167  1.0
  F  F9  1  0.80760537  0.98000566  0.01954118  1.0
  F  F10  1  0.80760538  0.48000557  0.98045834  1.0
  F  F11  1  0.19239468  0.01999434  0.98045881  1.0
