# generated using pymatgen
data_GdTlBr4
_symmetry_space_group_name_H-M   'P 1'
_cell_length_a   8.35162275
_cell_length_b   7.04693435
_cell_length_c   7.09030867
_cell_angle_alpha   90.00235367
_cell_angle_beta   90.00202092
_cell_angle_gamma   96.71570452
_symmetry_Int_Tables_number   1
_chemical_formula_structural   GdTlBr4
_chemical_formula_sum   'Gd2 Tl2 Br8'
_cell_volume   414.42515834
_cell_formula_units_Z   2
loop_
 _symmetry_equiv_pos_site_id
 _symmetry_equiv_pos_as_xyz
  1  'x, y, z'
loop_
 _atom_site_type_symbol
 _atom_site_label
 _atom_site_symmetry_multiplicity
 _atom_site_fract_x
 _atom_site_fract_y
 _atom_site_fract_z
 _atom_site_occupancy
  Gd  Gd0  1  0.00002334  0.75001329  0.75504473  1.0
  Gd  Gd1  1  0.99997514  0.24999277  0.24446608  1.0
  Tl  Tl2  1  0.50002683  0.24997698  0.69225903  1.0
  Tl  Tl3  1  0.49998143  0.75002180  0.30755425  1.0
  Br  Br4  1  0.80357435  0.02379888  0.55642120  1.0
  Br  Br5  1  0.19644074  0.47619456  0.55651145  1.0
  Br  Br6  1  0.19650964  0.97618983  0.44385969  1.0
  Br  Br7  1  0.80349397  0.52381327  0.44377624  1.0
  Br  Br8  1  0.19662660  0.57331990  0.05461963  1.0
  Br  Br9  1  0.80329658  0.92670093  0.05448644  1.0
  Br  Br10  1  0.80379832  0.42656107  0.94544500  1.0
  Br  Br11  1  0.19625307  0.07341673  0.94555625  1.0
