# generated using pymatgen
data_GeOsCl4
_symmetry_space_group_name_H-M   'P 1'
_cell_length_a   7.13987031
_cell_length_b   5.91264161
_cell_length_c   6.41781679
_cell_angle_alpha   91.50010245
_cell_angle_beta   90.00026445
_cell_angle_gamma   89.99948888
_symmetry_Int_Tables_number   1
_chemical_formula_structural   GeOsCl4
_chemical_formula_sum   'Ge2 Os2 Cl8'
_cell_volume   270.83845393
_cell_formula_units_Z   2
loop_
 _symmetry_equiv_pos_site_id
 _symmetry_equiv_pos_as_xyz
  1  'x, y, z'
loop_
 _atom_site_type_symbol
 _atom_site_label
 _atom_site_symmetry_multiplicity
 _atom_site_fract_x
 _atom_site_fract_y
 _atom_site_fract_z
 _atom_site_occupancy
  Ge  Ge0  1  0.85824692  0.99998791  0.74999050  1.0
  Ge  Ge1  1  0.14175326  0.00002915  0.24998895  1.0
  Os  Os2  1  0.37033879  0.49999583  0.74999963  1.0
  Os  Os3  1  0.62966111  0.49999878  0.25000520  1.0
  Cl  Cl4  1  0.13009327  0.26696691  0.59218879  1.0
  Cl  Cl5  1  0.86990857  0.26696532  0.09219766  1.0
  Cl  Cl6  1  0.59929418  0.28166186  0.56048318  1.0
  Cl  Cl7  1  0.40071095  0.28166395  0.06048394  1.0
  Cl  Cl8  1  0.59927377  0.71833703  0.93952732  1.0
  Cl  Cl9  1  0.40072107  0.71833926  0.43952803  1.0
  Cl  Cl10  1  0.13008881  0.73302774  0.90779908  1.0
  Cl  Cl11  1  0.86990928  0.73302626  0.40780772  1.0
