# generated using pymatgen
data_GePbF4
_symmetry_space_group_name_H-M   'P 1'
_cell_length_a   6.20120362
_cell_length_b   6.22502462
_cell_length_c   5.77184351
_cell_angle_alpha   92.91496651
_cell_angle_beta   89.99671861
_cell_angle_gamma   89.99874817
_symmetry_Int_Tables_number   1
_chemical_formula_structural   GePbF4
_chemical_formula_sum   'Ge2 Pb2 F8'
_cell_volume   222.52013662
_cell_formula_units_Z   2
loop_
 _symmetry_equiv_pos_site_id
 _symmetry_equiv_pos_as_xyz
  1  'x, y, z'
loop_
 _atom_site_type_symbol
 _atom_site_label
 _atom_site_symmetry_multiplicity
 _atom_site_fract_x
 _atom_site_fract_y
 _atom_site_fract_z
 _atom_site_occupancy
  Ge  Ge0  1  0.33402593  0.50001495  0.74998754  1.0
  Ge  Ge1  1  0.66597297  0.49998501  0.25001129  1.0
  Pb  Pb2  1  0.80153868  0.00000157  0.74999303  1.0
  Pb  Pb3  1  0.19847025  0.99999841  0.25000695  1.0
  F  F4  1  0.08726642  0.19689622  0.60140755  1.0
  F  F5  1  0.91271559  0.19690360  0.10141123  1.0
  F  F6  1  0.56407443  0.32040883  0.57585853  1.0
  F  F7  1  0.43594977  0.32040957  0.07588792  1.0
  F  F8  1  0.56405430  0.67959544  0.92411297  1.0
  F  F9  1  0.43592875  0.67958558  0.42414161  1.0
  F  F10  1  0.08727679  0.80309558  0.89858313  1.0
  F  F11  1  0.91272613  0.80310525  0.39859824  1.0
