# generated using pymatgen
data_GePtF4
_symmetry_space_group_name_H-M   'P 1'
_cell_length_a   6.27887982
_cell_length_b   5.19901545
_cell_length_c   5.75584391
_cell_angle_alpha   93.38306774
_cell_angle_beta   89.99998268
_cell_angle_gamma   89.99999032
_symmetry_Int_Tables_number   1
_chemical_formula_structural   GePtF4
_chemical_formula_sum   'Ge2 Pt2 F8'
_cell_volume   187.56628904
_cell_formula_units_Z   2
loop_
 _symmetry_equiv_pos_site_id
 _symmetry_equiv_pos_as_xyz
  1  'x, y, z'
loop_
 _atom_site_type_symbol
 _atom_site_label
 _atom_site_symmetry_multiplicity
 _atom_site_fract_x
 _atom_site_fract_y
 _atom_site_fract_z
 _atom_site_occupancy
  Ge  Ge0  1  0.84573217  0.99999991  0.75000023  1.0
  Ge  Ge1  1  0.15426773  0.00000009  0.24999978  1.0
  Pt  Pt2  1  0.35141522  0.50000010  0.75000001  1.0
  Pt  Pt3  1  0.64858481  0.49999991  0.24999999  1.0
  F  F4  1  0.09050592  0.22060039  0.59637167  1.0
  F  F5  1  0.90949399  0.22060062  0.09637202  1.0
  F  F6  1  0.62084861  0.28383232  0.56598407  1.0
  F  F7  1  0.37915158  0.28383215  0.06598355  1.0
  F  F8  1  0.62084872  0.71616764  0.93401594  1.0
  F  F9  1  0.37915168  0.71616789  0.43401643  1.0
  F  F10  1  0.09050574  0.77939970  0.90362784  1.0
  F  F11  1  0.90949382  0.77939929  0.40362847  1.0
