# generated using pymatgen
data_H2CS
_symmetry_space_group_name_H-M   'P 1'
_cell_length_a   4.70281927
_cell_length_b   4.70294045
_cell_length_c   4.70313419
_cell_angle_alpha   127.05643130
_cell_angle_beta   108.43967488
_cell_angle_gamma   94.65053197
_symmetry_Int_Tables_number   1
_chemical_formula_structural   H2CS
_chemical_formula_sum   'H2 C1 S1'
_cell_volume   73.50443633
_cell_formula_units_Z   1
loop_
 _symmetry_equiv_pos_site_id
 _symmetry_equiv_pos_as_xyz
  1  'x, y, z'
loop_
 _atom_site_type_symbol
 _atom_site_label
 _atom_site_symmetry_multiplicity
 _atom_site_fract_x
 _atom_site_fract_y
 _atom_site_fract_z
 _atom_site_occupancy
  H  H0  1  0.67022205  0.14621626  0.52404471  1.0
  H  H1  1  0.37781596  0.85380541  0.52400650  1.0
  C  C2  1  0.62920932  0.00000195  0.62921289  1.0
  S  S3  1  0.92275267  0.99997638  0.92273690  1.0
