# generated using pymatgen
data_HgBCl4
_symmetry_space_group_name_H-M   'P 1'
_cell_length_a   11.80893619
_cell_length_b   17.99003510
_cell_length_c   18.01505457
_cell_angle_alpha   78.47991622
_cell_angle_beta   90.00003844
_cell_angle_gamma   90.00013770
_symmetry_Int_Tables_number   1
_chemical_formula_structural   HgBCl4
_chemical_formula_sum   'Hg4 B4 Cl16'
_cell_volume   3750.07605264
_cell_formula_units_Z   4
loop_
 _symmetry_equiv_pos_site_id
 _symmetry_equiv_pos_as_xyz
  1  'x, y, z'
loop_
 _atom_site_type_symbol
 _atom_site_label
 _atom_site_symmetry_multiplicity
 _atom_site_fract_x
 _atom_site_fract_y
 _atom_site_fract_z
 _atom_site_occupancy
  Hg  Hg0  1  0.50637338  0.74427911  0.81817008  1.0
  Hg  Hg1  1  0.50637326  0.75572075  0.18183005  1.0
  Hg  Hg2  1  0.49362692  0.25572103  0.18182890  1.0
  Hg  Hg3  1  0.49362673  0.24427942  0.81817010  1.0
  B  B4  1  0.44071412  0.49044687  0.15400361  1.0
  B  B5  1  0.44071418  0.00955303  0.84599666  1.0
  B  B6  1  0.55928578  0.50955317  0.84599665  1.0
  B  B7  1  0.55928581  0.99044681  0.15400356  1.0
  Cl  Cl8  1  0.35851469  0.47718523  0.07700493  1.0
  Cl  Cl9  1  0.35851503  0.02281479  0.92299532  1.0
  Cl  Cl10  1  0.64148517  0.52281491  0.92299534  1.0
  Cl  Cl11  1  0.64148515  0.97718529  0.07700494  1.0
  Cl  Cl12  1  0.57442848  0.53230151  0.13787986  1.0
  Cl  Cl13  1  0.57442812  0.96769812  0.86212035  1.0
  Cl  Cl14  1  0.42557154  0.46769827  0.86212034  1.0
  Cl  Cl15  1  0.42557166  0.03230129  0.13787977  1.0
  Cl  Cl16  1  0.47620848  0.21727413  0.31924969  1.0
  Cl  Cl17  1  0.47620834  0.28272611  0.68074924  1.0
  Cl  Cl18  1  0.52379162  0.78272613  0.68074932  1.0
  Cl  Cl19  1  0.52379164  0.71727387  0.31925086  1.0
  Cl  Cl20  1  0.39068046  0.46171628  0.24592140  1.0
  Cl  Cl21  1  0.39068065  0.03828370  0.75407884  1.0
  Cl  Cl22  1  0.60931944  0.53828388  0.75407884  1.0
  Cl  Cl23  1  0.60931935  0.96171629  0.24592137  1.0
