# generated using pymatgen
data_HgPbF4
_symmetry_space_group_name_H-M   'P 1'
_cell_length_a   5.86532807
_cell_length_b   5.93722586
_cell_length_c   5.92518894
_cell_angle_alpha   90.00000400
_cell_angle_beta   90.00000883
_cell_angle_gamma   94.70952664
_symmetry_Int_Tables_number   1
_chemical_formula_structural   HgPbF4
_chemical_formula_sum   'Hg2 Pb2 F8'
_cell_volume   205.64081421
_cell_formula_units_Z   2
loop_
 _symmetry_equiv_pos_site_id
 _symmetry_equiv_pos_as_xyz
  1  'x, y, z'
loop_
 _atom_site_type_symbol
 _atom_site_label
 _atom_site_symmetry_multiplicity
 _atom_site_fract_x
 _atom_site_fract_y
 _atom_site_fract_z
 _atom_site_occupancy
  Hg  Hg0  1  0.00000002  0.75000007  0.78385633  1.0
  Hg  Hg1  1  0.00000003  0.25000001  0.21614364  1.0
  Pb  Pb2  1  0.50000000  0.75000004  0.26030900  1.0
  Pb  Pb3  1  0.49999995  0.24999996  0.73969100  1.0
  F  F4  1  0.75602565  0.99436493  0.96984473  1.0
  F  F5  1  0.24397439  0.00563504  0.03015530  1.0
  F  F6  1  0.24397442  0.50563502  0.96984444  1.0
  F  F7  1  0.75602562  0.49436495  0.03015553  1.0
  F  F8  1  0.74424182  0.56524960  0.54311797  1.0
  F  F9  1  0.25575809  0.43475041  0.45688202  1.0
  F  F10  1  0.25575813  0.93475042  0.54311789  1.0
  F  F11  1  0.74424188  0.06524953  0.45688213  1.0
