# generated using pymatgen
data_HoAlN2
_symmetry_space_group_name_H-M   'P 1'
_cell_length_a   7.89727102
_cell_length_b   7.89809455
_cell_length_c   5.45506455
_cell_angle_alpha   64.04020910
_cell_angle_beta   115.94463210
_cell_angle_gamma   66.57977900
_symmetry_Int_Tables_number   1
_chemical_formula_structural   HoAlN2
_chemical_formula_sum   'Ho4 Al4 N8'
_cell_volume   188.44792893
_cell_formula_units_Z   4
loop_
 _symmetry_equiv_pos_site_id
 _symmetry_equiv_pos_as_xyz
  1  'x, y, z'
loop_
 _atom_site_type_symbol
 _atom_site_label
 _atom_site_symmetry_multiplicity
 _atom_site_fract_x
 _atom_site_fract_y
 _atom_site_fract_z
 _atom_site_occupancy
  Ho  Ho0  1  0.18284376  0.18284450  0.74997171  1.0
  Ho  Ho1  1  0.44167316  0.44165594  0.75004246  1.0
  Ho  Ho2  1  0.81715622  0.81715554  0.25002819  1.0
  Ho  Ho3  1  0.55832685  0.55834407  0.24995752  1.0
  Al  Al4  1  0.70259308  0.70253908  0.75006233  1.0
  Al  Al5  1  0.93119325  0.93103534  0.75014660  1.0
  Al  Al6  1  0.06880669  0.06896479  0.24985319  1.0
  Al  Al7  1  0.29740678  0.29746112  0.24993737  1.0
  N  N8  1  0.16692847  0.71143333  0.74283757  1.0
  N  N9  1  0.43778123  0.93953534  0.71192501  1.0
  N  N10  1  0.28842224  0.83313207  0.24263453  1.0
  N  N11  1  0.06046494  0.56221232  0.21194482  1.0
  N  N12  1  0.93953504  0.43778766  0.78805523  1.0
  N  N13  1  0.71157789  0.16686789  0.75736567  1.0
  N  N14  1  0.56221877  0.06046464  0.28807501  1.0
  N  N15  1  0.83307165  0.28856636  0.25716279  1.0
