# generated using pymatgen
data_HoBr2F
_symmetry_space_group_name_H-M   'P 1'
_cell_length_a   6.67642742
_cell_length_b   6.67747249
_cell_length_c   7.54961719
_cell_angle_alpha   58.15447405
_cell_angle_beta   58.15407579
_cell_angle_gamma   67.53304355
_symmetry_Int_Tables_number   1
_chemical_formula_structural   HoBr2F
_chemical_formula_sum   'Ho2 Br4 F2'
_cell_volume   240.34939359
_cell_formula_units_Z   2
loop_
 _symmetry_equiv_pos_site_id
 _symmetry_equiv_pos_as_xyz
  1  'x, y, z'
loop_
 _atom_site_type_symbol
 _atom_site_label
 _atom_site_symmetry_multiplicity
 _atom_site_fract_x
 _atom_site_fract_y
 _atom_site_fract_z
 _atom_site_occupancy
  Ho  Ho0  1  0.49999982  0.99999913  0.50000151  1.0
  Ho  Ho1  1  0.00000283  0.49999819  0.99999807  1.0
  Br  Br2  1  0.29184131  0.13219865  0.20858493  1.0
  Br  Br3  1  0.86769004  0.70817118  0.29149706  1.0
  Br  Br4  1  0.13230869  0.29183007  0.70850318  1.0
  Br  Br5  1  0.70815741  0.86780255  0.79141527  1.0
  F  F6  1  0.28692726  0.71307756  0.75001081  1.0
  F  F7  1  0.71307265  0.28692266  0.24998918  1.0
