# generated using pymatgen
data_HoHI2
_symmetry_space_group_name_H-M   'P 1'
_cell_length_a   5.40039376
_cell_length_b   5.40040033
_cell_length_c   4.31637229
_cell_angle_alpha   89.99985333
_cell_angle_beta   89.99997168
_cell_angle_gamma   119.99993661
_symmetry_Int_Tables_number   1
_chemical_formula_structural   HoHI2
_chemical_formula_sum   'Ho1 H1 I2'
_cell_volume   109.01874716
_cell_formula_units_Z   1
loop_
 _symmetry_equiv_pos_site_id
 _symmetry_equiv_pos_as_xyz
  1  'x, y, z'
loop_
 _atom_site_type_symbol
 _atom_site_label
 _atom_site_symmetry_multiplicity
 _atom_site_fract_x
 _atom_site_fract_y
 _atom_site_fract_z
 _atom_site_occupancy
  Ho  Ho0  1  0.00000228  0.00000130  0.99999969  1.0
  H  H1  1  0.99999833  0.99999938  0.50000037  1.0
  I  I2  1  0.33333333  0.66666667  0.22255811  1.0
  I  I3  1  0.66666667  0.33333333  0.77744184  1.0
