# generated using pymatgen
data_HoSeCl
_symmetry_space_group_name_H-M   'P 1'
_cell_length_a   4.83091090
_cell_length_b   4.83090962
_cell_length_c   4.83090895
_cell_angle_alpha   60.00002915
_cell_angle_beta   60.00001517
_cell_angle_gamma   60.00000864
_symmetry_Int_Tables_number   1
_chemical_formula_structural   HoSeCl
_chemical_formula_sum   'Ho1 Se1 Cl1'
_cell_volume   79.72085875
_cell_formula_units_Z   1
loop_
 _symmetry_equiv_pos_site_id
 _symmetry_equiv_pos_as_xyz
  1  'x, y, z'
loop_
 _atom_site_type_symbol
 _atom_site_label
 _atom_site_symmetry_multiplicity
 _atom_site_fract_x
 _atom_site_fract_y
 _atom_site_fract_z
 _atom_site_occupancy
  Ho  Ho0  1  0.99999999  0.00000000  0.00000013  1.0
  Se  Se1  1  0.74999999  0.75000006  0.74999985  1.0
  Cl  Cl2  1  0.50000002  0.49999994  0.50000002  1.0
