# generated using pymatgen
data_HoTlCl4
_symmetry_space_group_name_H-M   'P 1'
_cell_length_a   7.22818790
_cell_length_b   7.08604813
_cell_length_c   8.07693396
_cell_angle_alpha   89.99582614
_cell_angle_beta   89.99813357
_cell_angle_gamma   86.75272359
_symmetry_Int_Tables_number   1
_chemical_formula_structural   HoTlCl4
_chemical_formula_sum   'Ho2 Tl2 Cl8'
_cell_volume   413.03055704
_cell_formula_units_Z   2
loop_
 _symmetry_equiv_pos_site_id
 _symmetry_equiv_pos_as_xyz
  1  'x, y, z'
loop_
 _atom_site_type_symbol
 _atom_site_label
 _atom_site_symmetry_multiplicity
 _atom_site_fract_x
 _atom_site_fract_y
 _atom_site_fract_z
 _atom_site_occupancy
  Ho  Ho0  1  0.00002711  0.74986406  0.85507066  1.0
  Ho  Ho1  1  0.99997351  0.25013575  0.14492046  1.0
  Tl  Tl2  1  0.50001724  0.25000603  0.65929111  1.0
  Tl  Tl3  1  0.49998308  0.74999419  0.34070883  1.0
  Cl  Cl4  1  0.76493741  0.87814154  0.64145408  1.0
  Cl  Cl5  1  0.23505383  0.62188703  0.64149945  1.0
  Cl  Cl6  1  0.23506681  0.12185539  0.35854888  1.0
  Cl  Cl7  1  0.76494143  0.37811485  0.35850445  1.0
  Cl  Cl8  1  0.19637211  0.55433641  0.09609880  1.0
  Cl  Cl9  1  0.80352479  0.94565853  0.09615049  1.0
  Cl  Cl10  1  0.80362860  0.44566373  0.90390174  1.0
  Cl  Cl11  1  0.19647411  0.05434249  0.90385108  1.0
