# generated using pymatgen
data_HoTlI4
_symmetry_space_group_name_H-M   'P 1'
_cell_length_a   7.98178152
_cell_length_b   7.98788680
_cell_length_c   9.01154219
_cell_angle_alpha   90.00719022
_cell_angle_beta   89.99157483
_cell_angle_gamma   86.03111989
_symmetry_Int_Tables_number   1
_chemical_formula_structural   HoTlI4
_chemical_formula_sum   'Ho2 Tl2 I8'
_cell_volume   573.17609504
_cell_formula_units_Z   2
loop_
 _symmetry_equiv_pos_site_id
 _symmetry_equiv_pos_as_xyz
  1  'x, y, z'
loop_
 _atom_site_type_symbol
 _atom_site_label
 _atom_site_symmetry_multiplicity
 _atom_site_fract_x
 _atom_site_fract_y
 _atom_site_fract_z
 _atom_site_occupancy
  Ho  Ho0  1  0.99998810  0.75005187  0.86048047  1.0
  Ho  Ho1  1  0.00000542  0.24994885  0.13952582  1.0
  Tl  Tl2  1  0.49999415  0.24998699  0.64837866  1.0
  Tl  Tl3  1  0.50000672  0.75001212  0.35162030  1.0
  I  I4  1  0.76652289  0.88745320  0.62959757  1.0
  I  I5  1  0.23348854  0.61254385  0.62961497  1.0
  I  I6  1  0.23347638  0.11254775  0.37040181  1.0
  I  I7  1  0.76651387  0.38745417  0.37038196  1.0
  I  I8  1  0.20970441  0.55367345  0.10336913  1.0
  I  I9  1  0.79033039  0.94633943  0.10333759  1.0
  I  I10  1  0.79029661  0.44632732  0.89663072  1.0
  I  I11  1  0.20967251  0.05366101  0.89666100  1.0
