# generated using pymatgen
data_HPbBr
_symmetry_space_group_name_H-M   'P 1'
_cell_length_a   4.58542540
_cell_length_b   4.58543189
_cell_length_c   4.58543035
_cell_angle_alpha   60.00001993
_cell_angle_beta   59.99998647
_cell_angle_gamma   60.00001183
_symmetry_Int_Tables_number   1
_chemical_formula_structural   HPbBr
_chemical_formula_sum   'H1 Pb1 Br1'
_cell_volume   68.17498366
_cell_formula_units_Z   1
loop_
 _symmetry_equiv_pos_site_id
 _symmetry_equiv_pos_as_xyz
  1  'x, y, z'
loop_
 _atom_site_type_symbol
 _atom_site_label
 _atom_site_symmetry_multiplicity
 _atom_site_fract_x
 _atom_site_fract_y
 _atom_site_fract_z
 _atom_site_occupancy
  H  H0  1  0.25000004  0.25000018  0.24999988  1.0
  Pb  Pb1  1  0.99999974  0.99999965  0.00000034  1.0
  Br  Br2  1  0.50000022  0.50000017  0.49999977  1.0
