# generated using pymatgen
data_InBr2Cl
_symmetry_space_group_name_H-M   'P 1'
_cell_length_a   4.30349670
_cell_length_b   4.30349256
_cell_length_c   7.10278195
_cell_angle_alpha   89.99987733
_cell_angle_beta   90.00008768
_cell_angle_gamma   120.00012774
_symmetry_Int_Tables_number   1
_chemical_formula_structural   InBr2Cl
_chemical_formula_sum   'In1 Br2 Cl1'
_cell_volume   113.92029104
_cell_formula_units_Z   1
loop_
 _symmetry_equiv_pos_site_id
 _symmetry_equiv_pos_as_xyz
  1  'x, y, z'
loop_
 _atom_site_type_symbol
 _atom_site_label
 _atom_site_symmetry_multiplicity
 _atom_site_fract_x
 _atom_site_fract_y
 _atom_site_fract_z
 _atom_site_occupancy
  In  In0  1  0.00000015  0.00000011  0.49999902  1.0
  Br  Br1  1  0.66666667  0.33333333  0.70239629  1.0
  Br  Br2  1  0.33333333  0.66666667  0.29760354  1.0
  Cl  Cl3  1  0.99999989  0.99999998  0.00000116  1.0
