# generated using pymatgen
data_InBr2F
_symmetry_space_group_name_H-M   'P 1'
_cell_length_a   6.46615922
_cell_length_b   6.46615794
_cell_length_c   7.21710553
_cell_angle_alpha   58.80340316
_cell_angle_beta   58.80340288
_cell_angle_gamma   66.88857370
_symmetry_Int_Tables_number   1
_chemical_formula_structural   InBr2F
_chemical_formula_sum   'In2 Br4 F2'
_cell_volume   217.58983929
_cell_formula_units_Z   2
loop_
 _symmetry_equiv_pos_site_id
 _symmetry_equiv_pos_as_xyz
  1  'x, y, z'
loop_
 _atom_site_type_symbol
 _atom_site_label
 _atom_site_symmetry_multiplicity
 _atom_site_fract_x
 _atom_site_fract_y
 _atom_site_fract_z
 _atom_site_occupancy
  In  In0  1  0.49999999  0.00000000  0.50000000  1.0
  In  In1  1  0.99999999  0.50000001  0.00000001  1.0
  Br  Br2  1  0.28200294  0.11395662  0.21987657  1.0
  Br  Br3  1  0.88604354  0.71799711  0.28012339  1.0
  Br  Br4  1  0.11395646  0.28200289  0.71987662  1.0
  Br  Br5  1  0.71799708  0.88604338  0.78012341  1.0
  F  F6  1  0.30603970  0.69396031  0.74999998  1.0
  F  F7  1  0.69396031  0.30603967  0.25000003  1.0
