# generated using pymatgen
data_InCl2F
_symmetry_space_group_name_H-M   'P 1'
_cell_length_a   6.12571907
_cell_length_b   6.12571939
_cell_length_c   6.79150192
_cell_angle_alpha   60.00487649
_cell_angle_beta   60.00486402
_cell_angle_gamma   65.22182788
_symmetry_Int_Tables_number   1
_chemical_formula_structural   InCl2F
_chemical_formula_sum   'In2 Cl4 F2'
_cell_volume   186.22843674
_cell_formula_units_Z   2
loop_
 _symmetry_equiv_pos_site_id
 _symmetry_equiv_pos_as_xyz
  1  'x, y, z'
loop_
 _atom_site_type_symbol
 _atom_site_label
 _atom_site_symmetry_multiplicity
 _atom_site_fract_x
 _atom_site_fract_y
 _atom_site_fract_z
 _atom_site_occupancy
  In  In0  1  0.50000000  0.99999999  0.50000001  1.0
  In  In1  1  0.00000001  0.49999999  0.00000000  1.0
  Cl  Cl2  1  0.27500084  0.10496160  0.22693485  1.0
  Cl  Cl3  1  0.89503852  0.72499908  0.27306511  1.0
  Cl  Cl4  1  0.10496146  0.27500093  0.72693489  1.0
  Cl  Cl5  1  0.72499916  0.89503840  0.77306514  1.0
  F  F6  1  0.32644959  0.67355050  0.74999993  1.0
  F  F7  1  0.67355041  0.32644950  0.25000006  1.0
