# generated using pymatgen
data_InH2F
_symmetry_space_group_name_H-M   'P 1'
_cell_length_a   5.39439429
_cell_length_b   5.39439470
_cell_length_c   5.00770265
_cell_angle_alpha   67.03037029
_cell_angle_beta   67.03039310
_cell_angle_gamma   56.99906707
_symmetry_Int_Tables_number   1
_chemical_formula_structural   InH2F
_chemical_formula_sum   'In2 H4 F2'
_cell_volume   109.50124294
_cell_formula_units_Z   2
loop_
 _symmetry_equiv_pos_site_id
 _symmetry_equiv_pos_as_xyz
  1  'x, y, z'
loop_
 _atom_site_type_symbol
 _atom_site_label
 _atom_site_symmetry_multiplicity
 _atom_site_fract_x
 _atom_site_fract_y
 _atom_site_fract_z
 _atom_site_occupancy
  In  In0  1  0.49999998  0.00000003  0.50000018  1.0
  In  In1  1  0.99999998  0.50000001  0.99999976  1.0
  H  H2  1  0.31477970  0.12775826  0.20096149  1.0
  H  H3  1  0.87224176  0.68522016  0.29903855  1.0
  H  H4  1  0.12775821  0.31477991  0.70096158  1.0
  H  H5  1  0.68522028  0.87224173  0.79903842  1.0
  F  F6  1  0.31463635  0.68536362  0.75000009  1.0
  F  F7  1  0.68536374  0.31463628  0.24999992  1.0
