# generated using pymatgen
data_InICl2
_symmetry_space_group_name_H-M   'P 1'
_cell_length_a   4.87621327
_cell_length_b   4.87682146
_cell_length_c   5.95132802
_cell_angle_alpha   89.99713686
_cell_angle_beta   90.00804230
_cell_angle_gamma   120.01773694
_symmetry_Int_Tables_number   1
_chemical_formula_structural   InICl2
_chemical_formula_sum   'In1 I1 Cl2'
_cell_volume   122.54240934
_cell_formula_units_Z   1
loop_
 _symmetry_equiv_pos_site_id
 _symmetry_equiv_pos_as_xyz
  1  'x, y, z'
loop_
 _atom_site_type_symbol
 _atom_site_label
 _atom_site_symmetry_multiplicity
 _atom_site_fract_x
 _atom_site_fract_y
 _atom_site_fract_z
 _atom_site_occupancy
  In  In0  1  0.00000125  0.99999975  0.49999902  1.0
  I  I1  1  0.99999923  0.00000033  0.00000154  1.0
  Cl  Cl2  1  0.66666667  0.33333333  0.59051345  1.0
  Cl  Cl3  1  0.33333333  0.66666667  0.40948599  1.0
