# generated using pymatgen
data_InICl2
_symmetry_space_group_name_H-M   'P 1'
_cell_length_a   3.64105208
_cell_length_b   9.98166797
_cell_length_c   11.43124696
_cell_angle_alpha   70.58623621
_cell_angle_beta   89.63830042
_cell_angle_gamma   89.63210488
_symmetry_Int_Tables_number   1
_chemical_formula_structural   InICl2
_chemical_formula_sum   'In2 I2 Cl4'
_cell_volume   391.82114853
_cell_formula_units_Z   2
loop_
 _symmetry_equiv_pos_site_id
 _symmetry_equiv_pos_as_xyz
  1  'x, y, z'
loop_
 _atom_site_type_symbol
 _atom_site_label
 _atom_site_symmetry_multiplicity
 _atom_site_fract_x
 _atom_site_fract_y
 _atom_site_fract_z
 _atom_site_occupancy
  In  In0  1  0.99994360  0.83749477  0.29742541  1.0
  In  In1  1  0.00005590  0.16250250  0.70258519  1.0
  I  I2  1  0.49878598  0.64346775  0.23225665  1.0
  I  I3  1  0.50120852  0.35654933  0.76772553  1.0
  Cl  Cl4  1  0.50031514  0.02434321  0.18022101  1.0
  Cl  Cl5  1  0.49968600  0.97564246  0.81977602  1.0
  Cl  Cl6  1  0.50097337  0.80948898  0.47053964  1.0
  Cl  Cl7  1  0.49903149  0.19051099  0.52947054  1.0
