# generated using pymatgen
data_K2BrF
_symmetry_space_group_name_H-M   'P 1'
_cell_length_a   5.30155419
_cell_length_b   5.30155315
_cell_length_c   5.30155159
_cell_angle_alpha   59.99983718
_cell_angle_beta   59.99989907
_cell_angle_gamma   59.99988498
_symmetry_Int_Tables_number   1
_chemical_formula_structural   K2BrF
_chemical_formula_sum   'K2 Br1 F1'
_cell_volume   105.36420037
_cell_formula_units_Z   1
loop_
 _symmetry_equiv_pos_site_id
 _symmetry_equiv_pos_as_xyz
  1  'x, y, z'
loop_
 _atom_site_type_symbol
 _atom_site_label
 _atom_site_symmetry_multiplicity
 _atom_site_fract_x
 _atom_site_fract_y
 _atom_site_fract_z
 _atom_site_occupancy
  K  K0  1  0.24999969  0.25000021  0.24999975  1.0
  K  K1  1  0.75000072  0.74999934  0.75000032  1.0
  Br  Br2  1  0.49999982  0.50000017  0.49999999  1.0
  F  F3  1  0.99999977  0.00000028  0.99999995  1.0
