# generated using pymatgen
data_KAlO2
_symmetry_space_group_name_H-M   'P 1'
_cell_length_a   6.14958823
_cell_length_b   6.14955087
_cell_length_c   12.49379805
_cell_angle_alpha   83.14015245
_cell_angle_beta   83.14010295
_cell_angle_gamma   89.99815351
_symmetry_Int_Tables_number   1
_chemical_formula_structural   KAlO2
_chemical_formula_sum   'K8 Al8 O16'
_cell_volume   465.69143260
_cell_formula_units_Z   8
loop_
 _symmetry_equiv_pos_site_id
 _symmetry_equiv_pos_as_xyz
  1  'x, y, z'
loop_
 _atom_site_type_symbol
 _atom_site_label
 _atom_site_symmetry_multiplicity
 _atom_site_fract_x
 _atom_site_fract_y
 _atom_site_fract_z
 _atom_site_occupancy
  K  K0  1  0.65172169  0.77473012  0.90168984  1.0
  K  K1  1  0.34827830  0.22526987  0.09831016  1.0
  K  K2  1  0.22526993  0.34827838  0.59830988  1.0
  K  K3  1  0.77473005  0.65172163  0.40169013  1.0
  K  K4  1  0.22065713  0.84381312  0.61902243  1.0
  K  K5  1  0.77934287  0.15618689  0.38097757  1.0
  K  K6  1  0.15618697  0.77934298  0.88097722  1.0
  K  K7  1  0.84381303  0.22065702  0.11902278  1.0
  Al  Al8  1  0.70963354  0.08626402  0.66409560  1.0
  Al  Al9  1  0.29036646  0.91373598  0.33590440  1.0
  Al  Al10  1  0.91373571  0.29036700  0.83590201  1.0
  Al  Al11  1  0.08626430  0.70963300  0.16409799  1.0
  Al  Al12  1  0.42074478  0.29073036  0.83453203  1.0
  Al  Al13  1  0.57925522  0.70926964  0.16546797  1.0
  Al  Al14  1  0.70927019  0.57925664  0.66546553  1.0
  Al  Al15  1  0.29072982  0.42074336  0.33453447  1.0
  O  O16  1  0.45416277  0.07748583  0.74919783  1.0
  O  O17  1  0.54583723  0.92251417  0.25080217  1.0
  O  O18  1  0.92251591  0.54583469  0.75080400  1.0
  O  O19  1  0.07748409  0.45416532  0.24919600  1.0
  O  O20  1  0.64699734  0.27047649  0.91691324  1.0
  O  O21  1  0.35300266  0.72952351  0.08308676  1.0
  O  O22  1  0.72952336  0.35300252  0.58308744  1.0
  O  O23  1  0.27047664  0.64699748  0.41691256  1.0
  O  O24  1  0.45364970  0.54634772  0.75000091  1.0
  O  O25  1  0.54635030  0.45365228  0.24999909  1.0
  O  O26  1  0.72766222  0.85004776  0.59145407  1.0
  O  O27  1  0.27233778  0.14995223  0.40854593  1.0
  O  O28  1  0.14995209  0.27233761  0.90854663  1.0
  O  O29  1  0.85004792  0.72766239  0.09145336  1.0
  O  O30  1  0.92243671  0.07756499  0.75000092  1.0
  O  O31  1  0.07756329  0.92243501  0.24999908  1.0
