# generated using pymatgen
data_KAlS2
_symmetry_space_group_name_H-M   'P 1'
_cell_length_a   7.42487896
_cell_length_b   7.42487893
_cell_length_c   14.94204071
_cell_angle_alpha   82.82226995
_cell_angle_beta   82.82226967
_cell_angle_gamma   90.00643364
_symmetry_Int_Tables_number   1
_chemical_formula_structural   KAlS2
_chemical_formula_sum   'K8 Al8 S16'
_cell_volume   810.77361995
_cell_formula_units_Z   8
loop_
 _symmetry_equiv_pos_site_id
 _symmetry_equiv_pos_as_xyz
  1  'x, y, z'
loop_
 _atom_site_type_symbol
 _atom_site_label
 _atom_site_symmetry_multiplicity
 _atom_site_fract_x
 _atom_site_fract_y
 _atom_site_fract_z
 _atom_site_occupancy
  K  K0  1  0.65354017  0.77653840  0.88983975  1.0
  K  K1  1  0.34645983  0.22346160  0.11016024  1.0
  K  K2  1  0.22346162  0.34645983  0.61016025  1.0
  K  K3  1  0.77653838  0.65354017  0.38983975  1.0
  K  K4  1  0.22391376  0.84814554  0.61086980  1.0
  K  K5  1  0.77608625  0.15185446  0.38913020  1.0
  K  K6  1  0.15185447  0.77608625  0.88913020  1.0
  K  K7  1  0.84814553  0.22391376  0.11086980  1.0
  Al  Al8  1  0.70955773  0.08784591  0.66350038  1.0
  Al  Al9  1  0.29044227  0.91215409  0.33649963  1.0
  Al  Al10  1  0.91215409  0.29044227  0.83649963  1.0
  Al  Al11  1  0.08784591  0.70955773  0.16350037  1.0
  Al  Al12  1  0.42050399  0.29029147  0.83686769  1.0
  Al  Al13  1  0.57949601  0.70970852  0.16313231  1.0
  Al  Al14  1  0.70970853  0.57949601  0.66313231  1.0
  Al  Al15  1  0.29029147  0.42050399  0.33686769  1.0
  S  S16  1  0.43623487  0.05991570  0.75043294  1.0
  S  S17  1  0.56376514  0.94008430  0.24956706  1.0
  S  S18  1  0.94008430  0.56376514  0.74956706  1.0
  S  S19  1  0.05991570  0.43623486  0.25043294  1.0
  S  S20  1  0.64314833  0.26717673  0.93034709  1.0
  S  S21  1  0.35685165  0.73282327  0.06965291  1.0
  S  S22  1  0.73282327  0.35685166  0.56965291  1.0
  S  S23  1  0.26717673  0.64314834  0.43034709  1.0
  S  S24  1  0.43636129  0.56363871  0.75000000  1.0
  S  S25  1  0.56363871  0.43636129  0.25000000  1.0
  S  S26  1  0.73150238  0.85636688  0.57454752  1.0
  S  S27  1  0.26849762  0.14363312  0.42545248  1.0
  S  S28  1  0.14363312  0.26849762  0.92545248  1.0
  S  S29  1  0.85636688  0.73150237  0.07454752  1.0
  S  S30  1  0.93985263  0.06014738  0.75000000  1.0
  S  S31  1  0.06014737  0.93985262  0.25000000  1.0
