# generated using pymatgen
data_KAuCl2
_symmetry_space_group_name_H-M   'P 1'
_cell_length_a   5.65220270
_cell_length_b   8.72588547
_cell_length_c   9.64540860
_cell_angle_alpha   62.62106968
_cell_angle_beta   106.95791891
_cell_angle_gamma   74.25863417
_symmetry_Int_Tables_number   1
_chemical_formula_structural   KAuCl2
_chemical_formula_sum   'K2 Au2 Cl4'
_cell_volume   355.05961544
_cell_formula_units_Z   2
loop_
 _symmetry_equiv_pos_site_id
 _symmetry_equiv_pos_as_xyz
  1  'x, y, z'
loop_
 _atom_site_type_symbol
 _atom_site_label
 _atom_site_symmetry_multiplicity
 _atom_site_fract_x
 _atom_site_fract_y
 _atom_site_fract_z
 _atom_site_occupancy
  K  K0  1  0.50923094  0.71774480  0.23248660  1.0
  K  K1  1  0.49077013  0.28225535  0.76751363  1.0
  Au  Au2  1  0.00002770  0.89960367  0.35401831  1.0
  Au  Au3  1  0.99998220  0.10039262  0.64598434  1.0
  Cl  Cl4  1  0.53756560  0.10882955  0.14204941  1.0
  Cl  Cl5  1  0.46237564  0.89119923  0.85792294  1.0
  Cl  Cl6  1  0.46408752  0.69032365  0.56230102  1.0
  Cl  Cl7  1  0.53596028  0.30965114  0.43772376  1.0
