# generated using pymatgen
data_KBI4
_symmetry_space_group_name_H-M   'P 1'
_cell_length_a   7.88973054
_cell_length_b   10.00305836
_cell_length_c   13.71627717
_cell_angle_alpha   76.41176803
_cell_angle_beta   90.00000012
_cell_angle_gamma   90.00000085
_symmetry_Int_Tables_number   1
_chemical_formula_structural   KBI4
_chemical_formula_sum   'K4 B4 I16'
_cell_volume   1052.20808732
_cell_formula_units_Z   4
loop_
 _symmetry_equiv_pos_site_id
 _symmetry_equiv_pos_as_xyz
  1  'x, y, z'
loop_
 _atom_site_type_symbol
 _atom_site_label
 _atom_site_symmetry_multiplicity
 _atom_site_fract_x
 _atom_site_fract_y
 _atom_site_fract_z
 _atom_site_occupancy
  K  K0  1  0.90490766  0.00000000  0.75000000  1.0
  K  K1  1  0.09509235  0.00000000  0.25000000  1.0
  K  K2  1  0.35506236  0.50000000  0.75000000  1.0
  K  K3  1  0.64493764  0.50000000  0.25000000  1.0
  B  B4  1  0.78086705  0.71528306  0.55018999  1.0
  B  B5  1  0.21913295  0.28471694  0.44981001  1.0
  B  B6  1  0.78086704  0.28471693  0.94981002  1.0
  B  B7  1  0.21913295  0.71528306  0.05018998  1.0
  I  I8  1  0.25305467  0.78968507  0.88102727  1.0
  I  I9  1  0.74694533  0.21031492  0.11897273  1.0
  I  I10  1  0.25305466  0.21031495  0.61897272  1.0
  I  I11  1  0.74694534  0.78968506  0.38102728  1.0
  I  I12  1  0.59109702  0.82752702  0.62707456  1.0
  I  I13  1  0.40890298  0.17247298  0.37292544  1.0
  I  I14  1  0.59109702  0.17247298  0.87292544  1.0
  I  I15  1  0.40890298  0.82752701  0.12707456  1.0
  I  I16  1  0.73657061  0.48852068  0.59474217  1.0
  I  I17  1  0.26342939  0.51147932  0.40525783  1.0
  I  I18  1  0.73657061  0.51147931  0.90525785  1.0
  I  I19  1  0.26342938  0.48852069  0.09474216  1.0
  I  I20  1  0.95378084  0.77040696  0.09069648  1.0
  I  I21  1  0.04621915  0.22959304  0.90930352  1.0
  I  I22  1  0.95378084  0.22959304  0.40930352  1.0
  I  I23  1  0.04621916  0.77040696  0.59069648  1.0
