# generated using pymatgen
data_KCoF3
_symmetry_space_group_name_H-M   'P 1'
_cell_length_a   6.18744451
_cell_length_b   6.14092911
_cell_length_c   5.81845128
_cell_angle_alpha   92.04720641
_cell_angle_beta   89.28250064
_cell_angle_gamma   120.06150557
_symmetry_Int_Tables_number   1
_chemical_formula_structural   KCoF3
_chemical_formula_sum   'K2 Co2 F6'
_cell_volume   191.21778220
_cell_formula_units_Z   2
loop_
 _symmetry_equiv_pos_site_id
 _symmetry_equiv_pos_as_xyz
  1  'x, y, z'
loop_
 _atom_site_type_symbol
 _atom_site_label
 _atom_site_symmetry_multiplicity
 _atom_site_fract_x
 _atom_site_fract_y
 _atom_site_fract_z
 _atom_site_occupancy
  K  K0  1  0.67732196  0.33645680  0.00034712  1.0
  K  K1  1  0.65795124  0.32921829  0.50037020  1.0
  Co  Co2  1  0.99903454  0.99846473  0.49984143  1.0
  Co  Co3  1  0.00680241  0.00725444  0.99915608  1.0
  F  F4  1  0.26217438  0.05108755  0.75433730  1.0
  F  F5  1  0.78382126  0.74051609  0.76446457  1.0
  F  F6  1  0.94899894  0.22108025  0.73536864  1.0
  F  F7  1  0.94856551  0.72685846  0.26631307  1.0
  F  F8  1  0.26360759  0.21254533  0.24073499  1.0
  F  F9  1  0.78505552  0.04318473  0.23906661  1.0
