# generated using pymatgen
data_KCuI2
_symmetry_space_group_name_H-M   'P 1'
_cell_length_a   4.51089141
_cell_length_b   7.85957854
_cell_length_c   8.33964117
_cell_angle_alpha   90.11503984
_cell_angle_beta   90.00000049
_cell_angle_gamma   89.99999929
_symmetry_Int_Tables_number   1
_chemical_formula_structural   KCuI2
_chemical_formula_sum   'K2 Cu2 I4'
_cell_volume   295.67058456
_cell_formula_units_Z   2
loop_
 _symmetry_equiv_pos_site_id
 _symmetry_equiv_pos_as_xyz
  1  'x, y, z'
loop_
 _atom_site_type_symbol
 _atom_site_label
 _atom_site_symmetry_multiplicity
 _atom_site_fract_x
 _atom_site_fract_y
 _atom_site_fract_z
 _atom_site_occupancy
  K  K0  1  0.00000001  0.00000064  0.00000109  1.0
  K  K1  1  0.50000000  0.00000068  0.50000041  1.0
  Cu  Cu2  1  0.49999995  0.63257886  0.15616578  1.0
  Cu  Cu3  1  0.50000003  0.36741681  0.84383203  1.0
  I  I4  1  0.50000001  0.28902342  0.15323023  1.0
  I  I5  1  0.00000002  0.28441235  0.68893375  1.0
  I  I6  1  0.99999996  0.71558902  0.31106634  1.0
  I  I7  1  0.50000000  0.71097821  0.84677037  1.0
