# generated using pymatgen
data_KDyS2
_symmetry_space_group_name_H-M   'P 1'
_cell_length_a   3.99800764
_cell_length_b   7.86209282
_cell_length_c   7.09144250
_cell_angle_alpha   74.82461959
_cell_angle_beta   89.99999947
_cell_angle_gamma   90.00000080
_symmetry_Int_Tables_number   1
_chemical_formula_structural   KDyS2
_chemical_formula_sum   'K2 Dy2 S4'
_cell_volume   215.13039148
_cell_formula_units_Z   2
loop_
 _symmetry_equiv_pos_site_id
 _symmetry_equiv_pos_as_xyz
  1  'x, y, z'
loop_
 _atom_site_type_symbol
 _atom_site_label
 _atom_site_symmetry_multiplicity
 _atom_site_fract_x
 _atom_site_fract_y
 _atom_site_fract_z
 _atom_site_occupancy
  K  K0  1  0.49999999  0.52160418  0.26707318  1.0
  K  K1  1  0.50000002  0.47839581  0.73292683  1.0
  Dy  Dy2  1  0.00000000  0.00000000  0.00000000  1.0
  Dy  Dy3  1  0.50000000  0.00000000  0.50000000  1.0
  S  S4  1  0.50000000  0.18908396  0.11517386  1.0
  S  S5  1  0.00000000  0.20398750  0.60624756  1.0
  S  S6  1  0.99999999  0.79601251  0.39375243  1.0
  S  S7  1  0.50000000  0.81091605  0.88482614  1.0
