# generated using pymatgen
data_KErH4
_symmetry_space_group_name_H-M   'P 1'
_cell_length_a   6.26351259
_cell_length_b   6.33166795
_cell_length_c   5.31846120
_cell_angle_alpha   89.04048731
_cell_angle_beta   90.03321268
_cell_angle_gamma   89.98223565
_symmetry_Int_Tables_number   1
_chemical_formula_structural   KErH4
_chemical_formula_sum   'K2 Er2 H8'
_cell_volume   210.89247522
_cell_formula_units_Z   2
loop_
 _symmetry_equiv_pos_site_id
 _symmetry_equiv_pos_as_xyz
  1  'x, y, z'
loop_
 _atom_site_type_symbol
 _atom_site_label
 _atom_site_symmetry_multiplicity
 _atom_site_fract_x
 _atom_site_fract_y
 _atom_site_fract_z
 _atom_site_occupancy
  K  K0  1  0.70952342  0.50009793  0.75004284  1.0
  K  K1  1  0.29048068  0.49991744  0.24991343  1.0
  Er  Er2  1  0.19503195  0.99989386  0.75013236  1.0
  Er  Er3  1  0.80496621  0.00012680  0.24983284  1.0
  H  H4  1  0.92216183  0.15766376  0.92230043  1.0
  H  H5  1  0.37675118  0.25414656  0.86553930  1.0
  H  H6  1  0.37616684  0.74528507  0.63469966  1.0
  H  H7  1  0.92192055  0.84256649  0.57771269  1.0
  H  H8  1  0.07805982  0.15746533  0.42227072  1.0
  H  H9  1  0.62377637  0.25466969  0.36535639  1.0
  H  H10  1  0.62330818  0.74580383  0.13451821  1.0
  H  H11  1  0.07785298  0.84236323  0.07768114  1.0
