# generated using pymatgen
data_KEuF4
_symmetry_space_group_name_H-M   'P 1'
_cell_length_a   6.23952301
_cell_length_b   5.62271512
_cell_length_c   5.62747187
_cell_angle_alpha   89.99889592
_cell_angle_beta   90.00021502
_cell_angle_gamma   90.26501471
_symmetry_Int_Tables_number   1
_chemical_formula_structural   KEuF4
_chemical_formula_sum   'K2 Eu2 F8'
_cell_volume   197.42682340
_cell_formula_units_Z   2
loop_
 _symmetry_equiv_pos_site_id
 _symmetry_equiv_pos_as_xyz
  1  'x, y, z'
loop_
 _atom_site_type_symbol
 _atom_site_label
 _atom_site_symmetry_multiplicity
 _atom_site_fract_x
 _atom_site_fract_y
 _atom_site_fract_z
 _atom_site_occupancy
  K  K0  1  0.49999818  0.25000139  0.75029115  1.0
  K  K1  1  0.50000216  0.74999848  0.24971132  1.0
  Eu  Eu2  1  0.00000019  0.75000033  0.74983585  1.0
  Eu  Eu3  1  0.00000018  0.25000042  0.25016584  1.0
  F  F4  1  0.79140322  0.00260285  0.50055872  1.0
  F  F5  1  0.20858982  0.49739987  0.50055768  1.0
  F  F6  1  0.20860599  0.99739340  0.49944082  1.0
  F  F7  1  0.79140198  0.50260294  0.49944151  1.0
  F  F8  1  0.20803847  0.49935838  0.99947505  1.0
  F  F9  1  0.79196899  0.00064002  0.99947435  1.0
  F  F10  1  0.79195446  0.50064015  0.00052436  1.0
  F  F11  1  0.20803937  0.99936278  0.00052534  1.0
