# generated using pymatgen
data_KHgCl3
_symmetry_space_group_name_H-M   'P 1'
_cell_length_a   8.99640134
_cell_length_b   8.99640158
_cell_length_c   8.99640019
_cell_angle_alpha   48.74174670
_cell_angle_beta   48.74174640
_cell_angle_gamma   48.74175668
_symmetry_Int_Tables_number   1
_chemical_formula_structural   KHgCl3
_chemical_formula_sum   'K2 Hg2 Cl6'
_cell_volume   377.59296258
_cell_formula_units_Z   2
loop_
 _symmetry_equiv_pos_site_id
 _symmetry_equiv_pos_as_xyz
  1  'x, y, z'
loop_
 _atom_site_type_symbol
 _atom_site_label
 _atom_site_symmetry_multiplicity
 _atom_site_fract_x
 _atom_site_fract_y
 _atom_site_fract_z
 _atom_site_occupancy
  K  K0  1  0.50000002  0.50000026  0.49999981  1.0
  K  K1  1  0.00000025  0.99999992  0.99999983  1.0
  Hg  Hg2  1  0.74999982  0.75000003  0.75000012  1.0
  Hg  Hg3  1  0.25000003  0.24999984  0.25000013  1.0
  Cl  Cl4  1  0.24999992  0.57999815  0.92000191  1.0
  Cl  Cl5  1  0.07999816  0.75000003  0.42000178  1.0
  Cl  Cl6  1  0.42000169  0.07999848  0.74999997  1.0
  Cl  Cl7  1  0.57999851  0.92000177  0.24999990  1.0
  Cl  Cl8  1  0.92000167  0.24999987  0.57999834  1.0
  Cl  Cl9  1  0.74999993  0.42000165  0.07999820  1.0
