# generated using pymatgen
data_KHI2
_symmetry_space_group_name_H-M   'P 1'
_cell_length_a   6.91870467
_cell_length_b   6.91754272
_cell_length_c   7.38803681
_cell_angle_alpha   101.28343147
_cell_angle_beta   101.28175239
_cell_angle_gamma   100.64416309
_symmetry_Int_Tables_number   1
_chemical_formula_structural   KHI2
_chemical_formula_sum   'K2 H2 I4'
_cell_volume   330.79257642
_cell_formula_units_Z   2
loop_
 _symmetry_equiv_pos_site_id
 _symmetry_equiv_pos_as_xyz
  1  'x, y, z'
loop_
 _atom_site_type_symbol
 _atom_site_label
 _atom_site_symmetry_multiplicity
 _atom_site_fract_x
 _atom_site_fract_y
 _atom_site_fract_z
 _atom_site_occupancy
  K  K0  1  0.83329535  0.16671801  0.25000532  1.0
  K  K1  1  0.16670496  0.83328134  0.74999478  1.0
  H  H2  1  0.50004266  0.50004470  0.00000892  1.0
  H  H3  1  0.49995694  0.49995453  0.49998039  1.0
  I  I4  1  0.66853401  0.75353892  0.82472295  1.0
  I  I5  1  0.33146501  0.24646115  0.17530367  1.0
  I  I6  1  0.24633832  0.33139031  0.67524471  1.0
  I  I7  1  0.75366275  0.66861104  0.32473925  1.0
