# generated using pymatgen
data_KInBr4
_symmetry_space_group_name_H-M   'P 1'
_cell_length_a   7.47607632
_cell_length_b   7.29909562
_cell_length_c   8.27714703
_cell_angle_alpha   89.99999973
_cell_angle_beta   90.00000151
_cell_angle_gamma   84.92986933
_symmetry_Int_Tables_number   1
_chemical_formula_structural   KInBr4
_chemical_formula_sum   'K2 In2 Br8'
_cell_volume   449.90502097
_cell_formula_units_Z   2
loop_
 _symmetry_equiv_pos_site_id
 _symmetry_equiv_pos_as_xyz
  1  'x, y, z'
loop_
 _atom_site_type_symbol
 _atom_site_label
 _atom_site_symmetry_multiplicity
 _atom_site_fract_x
 _atom_site_fract_y
 _atom_site_fract_z
 _atom_site_occupancy
  K  K0  1  0.00000000  0.75000000  0.17606533  1.0
  K  K1  1  0.00000000  0.25000000  0.82393468  1.0
  In  In2  1  0.50000000  0.75000000  0.64165935  1.0
  In  In3  1  0.50000000  0.25000000  0.35834065  1.0
  Br  Br4  1  0.29903068  0.44545463  0.59633299  1.0
  Br  Br5  1  0.70096932  0.05454537  0.59633300  1.0
  Br  Br6  1  0.70096932  0.55454538  0.40366701  1.0
  Br  Br7  1  0.29903068  0.94545463  0.40366700  1.0
  Br  Br8  1  0.27073237  0.38156338  0.13788034  1.0
  Br  Br9  1  0.72926765  0.11843662  0.13788036  1.0
  Br  Br10  1  0.72926765  0.61843662  0.86211965  1.0
  Br  Br11  1  0.27073234  0.88156337  0.86211964  1.0
