# generated using pymatgen
data_KLaO2
_symmetry_space_group_name_H-M   'P 1'
_cell_length_a   7.06537282
_cell_length_b   7.17499718
_cell_length_c   7.06456547
_cell_angle_alpha   117.49687325
_cell_angle_beta   149.57779041
_cell_angle_gamma   53.31512681
_symmetry_Int_Tables_number   1
_chemical_formula_structural   KLaO2
_chemical_formula_sum   'K2 La2 O4'
_cell_volume   144.16183754
_cell_formula_units_Z   2
loop_
 _symmetry_equiv_pos_site_id
 _symmetry_equiv_pos_as_xyz
  1  'x, y, z'
loop_
 _atom_site_type_symbol
 _atom_site_label
 _atom_site_symmetry_multiplicity
 _atom_site_fract_x
 _atom_site_fract_y
 _atom_site_fract_z
 _atom_site_occupancy
  K  K0  1  0.01398779  0.25014291  0.76411139  1.0
  K  K1  1  0.99774815  0.75007831  0.24785132  1.0
  La  La2  1  0.99608510  0.49999007  0.49618081  1.0
  La  La3  1  0.99627551  0.99986700  0.99603341  1.0
  O  O4  1  0.33606244  0.26123940  0.40210358  1.0
  O  O5  1  0.66360105  0.23874099  0.09744283  1.0
  O  O6  1  0.33482929  0.76054719  0.90062625  1.0
  O  O7  1  0.66141068  0.73939412  0.59565040  1.0
