# generated using pymatgen
data_KLiI2
_symmetry_space_group_name_H-M   'P 1'
_cell_length_a   7.02287380
_cell_length_b   7.02287232
_cell_length_c   7.80991327
_cell_angle_alpha   99.62425117
_cell_angle_beta   99.62425947
_cell_angle_gamma   103.31787342
_symmetry_Int_Tables_number   1
_chemical_formula_structural   KLiI2
_chemical_formula_sum   'K2 Li2 I4'
_cell_volume   360.96250308
_cell_formula_units_Z   2
loop_
 _symmetry_equiv_pos_site_id
 _symmetry_equiv_pos_as_xyz
  1  'x, y, z'
loop_
 _atom_site_type_symbol
 _atom_site_label
 _atom_site_symmetry_multiplicity
 _atom_site_fract_x
 _atom_site_fract_y
 _atom_site_fract_z
 _atom_site_occupancy
  K  K0  1  0.85235901  0.14764098  0.25000003  1.0
  K  K1  1  0.14764099  0.85235902  0.74999998  1.0
  Li  Li2  1  0.50000000  0.50000000  0.00000000  1.0
  Li  Li3  1  0.50000000  0.50000000  0.50000000  1.0
  I  I4  1  0.65984599  0.81050715  0.82723661  1.0
  I  I5  1  0.34015400  0.18949284  0.17276338  1.0
  I  I6  1  0.18949283  0.34015398  0.67276336  1.0
  I  I7  1  0.81050718  0.65984603  0.32723665  1.0
