# generated using pymatgen
data_KLiS
_symmetry_space_group_name_H-M   'P 1'
_cell_length_a   4.53441398
_cell_length_b   4.53441644
_cell_length_c   4.53441300
_cell_angle_alpha   59.99979114
_cell_angle_beta   59.99981080
_cell_angle_gamma   59.99981980
_symmetry_Int_Tables_number   1
_chemical_formula_structural   KLiS
_chemical_formula_sum   'K1 Li1 S1'
_cell_volume   65.92448542
_cell_formula_units_Z   1
loop_
 _symmetry_equiv_pos_site_id
 _symmetry_equiv_pos_as_xyz
  1  'x, y, z'
loop_
 _atom_site_type_symbol
 _atom_site_label
 _atom_site_symmetry_multiplicity
 _atom_site_fract_x
 _atom_site_fract_y
 _atom_site_fract_z
 _atom_site_occupancy
  K  K0  1  0.50000042  0.49999907  0.49999977  1.0
  Li  Li1  1  0.24999963  0.25000003  0.24999978  1.0
  S  S2  1  0.99999995  0.00000090  0.00000045  1.0
