# generated using pymatgen
data_KLuS2
_symmetry_space_group_name_H-M   'P 1'
_cell_length_a   6.37321188
_cell_length_b   6.37244280
_cell_length_c   7.38601665
_cell_angle_alpha   103.59921630
_cell_angle_beta   103.59599259
_cell_angle_gamma   95.72815839
_symmetry_Int_Tables_number   1
_chemical_formula_structural   KLuS2
_chemical_formula_sum   'K2 Lu2 S4'
_cell_volume   279.54346612
_cell_formula_units_Z   2
loop_
 _symmetry_equiv_pos_site_id
 _symmetry_equiv_pos_as_xyz
  1  'x, y, z'
loop_
 _atom_site_type_symbol
 _atom_site_label
 _atom_site_symmetry_multiplicity
 _atom_site_fract_x
 _atom_site_fract_y
 _atom_site_fract_z
 _atom_site_occupancy
  K  K0  1  0.88092124  0.11909766  0.25001057  1.0
  K  K1  1  0.11907481  0.88089665  0.75000558  1.0
  Lu  Lu2  1  0.50002081  0.49997996  0.99999063  1.0
  Lu  Lu3  1  0.49998233  0.50001928  0.49999120  1.0
  S  S4  1  0.66566018  0.77197837  0.83788052  1.0
  S  S5  1  0.33433542  0.22802914  0.16212038  1.0
  S  S6  1  0.22804130  0.33434722  0.66212690  1.0
  S  S7  1  0.77196391  0.66565173  0.33787422  1.0
