# generated using pymatgen
data_KNaBr2
_symmetry_space_group_name_H-M   'P 1'
_cell_length_a   5.88256499
_cell_length_b   5.88256495
_cell_length_c   5.49399240
_cell_angle_alpha   89.99999894
_cell_angle_beta   90.00000212
_cell_angle_gamma   120.00389635
_symmetry_Int_Tables_number   1
_chemical_formula_structural   KNaBr2
_chemical_formula_sum   'K1 Na1 Br2'
_cell_volume   164.63990173
_cell_formula_units_Z   1
loop_
 _symmetry_equiv_pos_site_id
 _symmetry_equiv_pos_as_xyz
  1  'x, y, z'
loop_
 _atom_site_type_symbol
 _atom_site_label
 _atom_site_symmetry_multiplicity
 _atom_site_fract_x
 _atom_site_fract_y
 _atom_site_fract_z
 _atom_site_occupancy
  K  K0  1  0.00000271  0.99999728  0.49999999  1.0
  Na  Na1  1  0.33333333  0.66666667  0.50000001  1.0
  Br  Br2  1  0.66666667  0.33333333  0.00000000  1.0
  Br  Br3  1  0.99999651  0.00000349  0.99999999  1.0
