# generated using pymatgen
data_KNaF2
_symmetry_space_group_name_H-M   'P 1'
_cell_length_a   4.38542071
_cell_length_b   4.38534686
_cell_length_c   4.38540637
_cell_angle_alpha   59.99444966
_cell_angle_beta   59.99427436
_cell_angle_gamma   59.99467412
_symmetry_Int_Tables_number   1
_chemical_formula_structural   KNaF2
_chemical_formula_sum   'K1 Na1 F2'
_cell_volume   59.62873040
_cell_formula_units_Z   1
loop_
 _symmetry_equiv_pos_site_id
 _symmetry_equiv_pos_as_xyz
  1  'x, y, z'
loop_
 _atom_site_type_symbol
 _atom_site_label
 _atom_site_symmetry_multiplicity
 _atom_site_fract_x
 _atom_site_fract_y
 _atom_site_fract_z
 _atom_site_occupancy
  K  K0  1  0.50000027  0.49999952  0.50000037  1.0
  Na  Na1  1  0.00000001  0.00000002  0.99999995  1.0
  F  F2  1  0.24999853  0.25000082  0.24999888  1.0
  F  F3  1  0.75000119  0.74999964  0.75000080  1.0
