# generated using pymatgen
data_KNaF2
_symmetry_space_group_name_H-M   'P 1'
_cell_length_a   6.42844841
_cell_length_b   6.42844843
_cell_length_c   13.57638440
_cell_angle_alpha   84.90010621
_cell_angle_beta   84.90010472
_cell_angle_gamma   91.66026764
_symmetry_Int_Tables_number   1
_chemical_formula_structural   KNaF2
_chemical_formula_sum   'K8 Na8 F16'
_cell_volume   556.22548838
_cell_formula_units_Z   8
loop_
 _symmetry_equiv_pos_site_id
 _symmetry_equiv_pos_as_xyz
  1  'x, y, z'
loop_
 _atom_site_type_symbol
 _atom_site_label
 _atom_site_symmetry_multiplicity
 _atom_site_fract_x
 _atom_site_fract_y
 _atom_site_fract_z
 _atom_site_occupancy
  K  K0  1  0.72435862  0.10749656  0.10017669  1.0
  K  K1  1  0.89250345  0.27564139  0.39982332  1.0
  K  K2  1  0.27564139  0.89250345  0.89982331  1.0
  K  K3  1  0.10749655  0.72435861  0.60017668  1.0
  K  K4  1  0.39815563  0.27699010  0.40142572  1.0
  K  K5  1  0.72300996  0.60184439  0.09857428  1.0
  K  K6  1  0.60184437  0.72300988  0.59857428  1.0
  K  K7  1  0.27699005  0.39815562  0.90142573  1.0
  Na  Na8  1  0.21565770  0.84439973  0.15584572  1.0
  Na  Na9  1  0.15560028  0.78434230  0.34415428  1.0
  Na  Na10  1  0.78434230  0.15560028  0.84415428  1.0
  Na  Na11  1  0.84439971  0.21565769  0.65584572  1.0
  Na  Na12  1  0.65990798  0.79055901  0.32736259  1.0
  Na  Na13  1  0.20944099  0.34009204  0.17263741  1.0
  Na  Na14  1  0.34009201  0.20944099  0.67263741  1.0
  Na  Na15  1  0.79055900  0.65990798  0.82736259  1.0
  F  F16  1  0.95990047  0.04009951  0.25000000  1.0
  F  F17  1  0.04009954  0.95990048  0.75000000  1.0
  F  F18  1  0.43141845  0.56858159  0.24999999  1.0
  F  F19  1  0.56858157  0.43141838  0.75000001  1.0
  F  F20  1  0.75645076  0.87886008  0.95500375  1.0
  F  F21  1  0.12113993  0.24354924  0.54499625  1.0
  F  F22  1  0.24354921  0.12113993  0.04499625  1.0
  F  F23  1  0.87886007  0.75645078  0.45500375  1.0
  F  F24  1  0.43254180  0.03950301  0.25083850  1.0
  F  F25  1  0.96049702  0.56745819  0.24916151  1.0
  F  F26  1  0.56745822  0.96049696  0.74916150  1.0
  F  F27  1  0.03950300  0.43254181  0.75083849  1.0
  F  F28  1  0.61311106  0.24258407  0.54577193  1.0
  F  F29  1  0.75741599  0.38688893  0.95422807  1.0
  F  F30  1  0.38688893  0.75741594  0.45422807  1.0
  F  F31  1  0.24258401  0.61311109  0.04577193  1.0
