# generated using pymatgen
data_KScI4
_symmetry_space_group_name_H-M   'P 1'
_cell_length_a   8.56021551
_cell_length_b   9.56240102
_cell_length_c   15.27441812
_cell_angle_alpha   76.59698098
_cell_angle_beta   90.00000176
_cell_angle_gamma   90.00000225
_symmetry_Int_Tables_number   1
_chemical_formula_structural   KScI4
_chemical_formula_sum   'K4 Sc4 I16'
_cell_volume   1216.25227797
_cell_formula_units_Z   4
loop_
 _symmetry_equiv_pos_site_id
 _symmetry_equiv_pos_as_xyz
  1  'x, y, z'
loop_
 _atom_site_type_symbol
 _atom_site_label
 _atom_site_symmetry_multiplicity
 _atom_site_fract_x
 _atom_site_fract_y
 _atom_site_fract_z
 _atom_site_occupancy
  K  K0  1  0.90358769  0.99999999  0.75000001  1.0
  K  K1  1  0.09641231  0.00000002  0.24999999  1.0
  K  K2  1  0.37791911  0.49999999  0.74999999  1.0
  K  K3  1  0.62208091  0.50000000  0.25000000  1.0
  Sc  Sc4  1  0.78634179  0.71066559  0.54976941  1.0
  Sc  Sc5  1  0.21365821  0.28933439  0.45023059  1.0
  Sc  Sc6  1  0.78634179  0.28933442  0.95023059  1.0
  Sc  Sc7  1  0.21365820  0.71066560  0.04976941  1.0
  I  I8  1  0.23852081  0.78494294  0.86561752  1.0
  I  I9  1  0.76147919  0.21505707  0.13438248  1.0
  I  I10  1  0.23852081  0.21505706  0.63438249  1.0
  I  I11  1  0.76147919  0.78494292  0.36561751  1.0
  I  I12  1  0.58084310  0.85791804  0.63172174  1.0
  I  I13  1  0.41915691  0.14208194  0.36827826  1.0
  I  I14  1  0.58084310  0.14208197  0.86827825  1.0
  I  I15  1  0.41915690  0.85791805  0.13172175  1.0
  I  I16  1  0.71806867  0.42774798  0.60872745  1.0
  I  I17  1  0.28193133  0.57225199  0.39127255  1.0
  I  I18  1  0.71806866  0.57225202  0.89127257  1.0
  I  I19  1  0.28193133  0.42774800  0.10872744  1.0
  I  I20  1  0.92184783  0.77451479  0.10119997  1.0
  I  I21  1  0.07815217  0.22548523  0.89880004  1.0
  I  I22  1  0.92184784  0.22548520  0.39880001  1.0
  I  I23  1  0.07815216  0.77451477  0.60119999  1.0
