# generated using pymatgen
data_KScO2
_symmetry_space_group_name_H-M   'P 1'
_cell_length_a   3.22645913
_cell_length_b   3.22645930
_cell_length_c   6.31479723
_cell_angle_alpha   90.00000486
_cell_angle_beta   90.00000223
_cell_angle_gamma   120.00001317
_symmetry_Int_Tables_number   1
_chemical_formula_structural   KScO2
_chemical_formula_sum   'K1 Sc1 O2'
_cell_volume   56.93015197
_cell_formula_units_Z   1
loop_
 _symmetry_equiv_pos_site_id
 _symmetry_equiv_pos_as_xyz
  1  'x, y, z'
loop_
 _atom_site_type_symbol
 _atom_site_label
 _atom_site_symmetry_multiplicity
 _atom_site_fract_x
 _atom_site_fract_y
 _atom_site_fract_z
 _atom_site_occupancy
  K  K0  1  0.00000001  0.99999995  0.00000000  1.0
  Sc  Sc1  1  0.00000000  0.99999999  0.50000002  1.0
  O  O2  1  0.33333333  0.66666667  0.32403589  1.0
  O  O3  1  0.66666667  0.33333333  0.67596409  1.0
