# generated using pymatgen
data_KScS2
_symmetry_space_group_name_H-M   'P 1'
_cell_length_a   6.43022945
_cell_length_b   6.43038113
_cell_length_c   7.03419081
_cell_angle_alpha   102.63578527
_cell_angle_beta   102.63520620
_cell_angle_gamma   98.25020479
_symmetry_Int_Tables_number   1
_chemical_formula_structural   KScS2
_chemical_formula_sum   'K2 Sc2 S4'
_cell_volume   271.28806690
_cell_formula_units_Z   2
loop_
 _symmetry_equiv_pos_site_id
 _symmetry_equiv_pos_as_xyz
  1  'x, y, z'
loop_
 _atom_site_type_symbol
 _atom_site_label
 _atom_site_symmetry_multiplicity
 _atom_site_fract_x
 _atom_site_fract_y
 _atom_site_fract_z
 _atom_site_occupancy
  K  K0  1  0.87304160  0.12695560  0.25000060  1.0
  K  K1  1  0.12695967  0.87304624  0.75000192  1.0
  Sc  Sc2  1  0.50000520  0.50001103  0.99997760  1.0
  Sc  Sc3  1  0.49999335  0.49999690  0.50002268  1.0
  S  S4  1  0.66336759  0.76484827  0.83433934  1.0
  S  S5  1  0.33661647  0.23512912  0.16565499  1.0
  S  S6  1  0.23514419  0.33663298  0.66566080  1.0
  S  S7  1  0.76487193  0.66337987  0.33434208  1.0
