# generated using pymatgen
data_KSmI4
_symmetry_space_group_name_H-M   'P 1'
_cell_length_a   8.85754890
_cell_length_b   7.61825335
_cell_length_c   7.84980640
_cell_angle_alpha   89.99778666
_cell_angle_beta   90.00531542
_cell_angle_gamma   96.61925160
_symmetry_Int_Tables_number   1
_chemical_formula_structural   KSmI4
_chemical_formula_sum   'K2 Sm2 I8'
_cell_volume   526.16657280
_cell_formula_units_Z   2
loop_
 _symmetry_equiv_pos_site_id
 _symmetry_equiv_pos_as_xyz
  1  'x, y, z'
loop_
 _atom_site_type_symbol
 _atom_site_label
 _atom_site_symmetry_multiplicity
 _atom_site_fract_x
 _atom_site_fract_y
 _atom_site_fract_z
 _atom_site_occupancy
  K  K0  1  0.50000961  0.25001548  0.68448184  1.0
  K  K1  1  0.49999039  0.74998452  0.31551866  1.0
  Sm  Sm2  1  0.00001427  0.75000345  0.75941753  1.0
  Sm  Sm3  1  0.99998574  0.24999656  0.24058220  1.0
  I  I4  1  0.79559382  0.00946510  0.56842822  1.0
  I  I5  1  0.20439228  0.49052774  0.56843454  1.0
  I  I6  1  0.20440637  0.99053493  0.43157170  1.0
  I  I7  1  0.79560752  0.50947223  0.43156538  1.0
  I  I8  1  0.19820522  0.57552284  0.06826908  1.0
  I  I9  1  0.80178710  0.92447287  0.06826931  1.0
  I  I10  1  0.80179498  0.42447726  0.93173088  1.0
  I  I11  1  0.19821272  0.07552703  0.93173066  1.0
