# generated using pymatgen
data_KTbI4
_symmetry_space_group_name_H-M   'P 1'
_cell_length_a   8.77253946
_cell_length_b   9.27619922
_cell_length_c   16.11333295
_cell_angle_alpha   76.30738711
_cell_angle_beta   89.99908426
_cell_angle_gamma   90.00070769
_symmetry_Int_Tables_number   1
_chemical_formula_structural   KTbI4
_chemical_formula_sum   'K4 Tb4 I16'
_cell_volume   1273.96995875
_cell_formula_units_Z   4
loop_
 _symmetry_equiv_pos_site_id
 _symmetry_equiv_pos_as_xyz
  1  'x, y, z'
loop_
 _atom_site_type_symbol
 _atom_site_label
 _atom_site_symmetry_multiplicity
 _atom_site_fract_x
 _atom_site_fract_y
 _atom_site_fract_z
 _atom_site_occupancy
  K  K0  1  0.90536001  0.99999829  0.75000056  1.0
  K  K1  1  0.09463999  0.00000170  0.24999944  1.0
  K  K2  1  0.38759934  0.49999978  0.75000056  1.0
  K  K3  1  0.61240066  0.50000022  0.24999944  1.0
  Tb  Tb4  1  0.78807786  0.71373287  0.54653493  1.0
  Tb  Tb5  1  0.21192214  0.28626714  0.45346507  1.0
  Tb  Tb6  1  0.78807623  0.28626921  0.95346498  1.0
  Tb  Tb7  1  0.21192377  0.71373079  0.04653502  1.0
  I  I8  1  0.22924306  0.77808343  0.86076239  1.0
  I  I9  1  0.77075694  0.22191657  0.13923761  1.0
  I  I10  1  0.22924241  0.22191653  0.63923720  1.0
  I  I11  1  0.77075759  0.77808347  0.36076280  1.0
  I  I12  1  0.58167557  0.87065968  0.63455076  1.0
  I  I13  1  0.41832444  0.12934032  0.36544924  1.0
  I  I14  1  0.58167611  0.12933932  0.86545019  1.0
  I  I15  1  0.41832389  0.87066068  0.13454981  1.0
  I  I16  1  0.71044734  0.40654213  0.61329025  1.0
  I  I17  1  0.28955266  0.59345787  0.38670975  1.0
  I  I18  1  0.71044834  0.59345769  0.88670973  1.0
  I  I19  1  0.28955166  0.40654231  0.11329027  1.0
  I  I20  1  0.91221834  0.77820814  0.10345750  1.0
  I  I21  1  0.08778166  0.22179185  0.89654250  1.0
  I  I22  1  0.91221786  0.22178982  0.39654333  1.0
  I  I23  1  0.08778214  0.77821018  0.60345667  1.0
