# generated using pymatgen
data_KTlBr2
_symmetry_space_group_name_H-M   'P 1'
_cell_length_a   4.67179771
_cell_length_b   4.67179739
_cell_length_c   8.13480037
_cell_angle_alpha   89.99999046
_cell_angle_beta   90.00001003
_cell_angle_gamma   120.00012095
_symmetry_Int_Tables_number   1
_chemical_formula_structural   KTlBr2
_chemical_formula_sum   'K1 Tl1 Br2'
_cell_volume   153.76058805
_cell_formula_units_Z   1
loop_
 _symmetry_equiv_pos_site_id
 _symmetry_equiv_pos_as_xyz
  1  'x, y, z'
loop_
 _atom_site_type_symbol
 _atom_site_label
 _atom_site_symmetry_multiplicity
 _atom_site_fract_x
 _atom_site_fract_y
 _atom_site_fract_z
 _atom_site_occupancy
  K  K0  1  0.00000000  0.00000001  0.00000000  1.0
  Tl  Tl1  1  0.00000000  0.00000000  0.50000000  1.0
  Br  Br2  1  0.66666667  0.33333333  0.75375412  1.0
  Br  Br3  1  0.33333333  0.66666667  0.24624589  1.0
