# generated using pymatgen
data_KTlCl2
_symmetry_space_group_name_H-M   'P 1'
_cell_length_a   4.46725697
_cell_length_b   4.46726532
_cell_length_c   7.80130330
_cell_angle_alpha   89.99999400
_cell_angle_beta   89.99994738
_cell_angle_gamma   120.00000181
_symmetry_Int_Tables_number   1
_chemical_formula_structural   KTlCl2
_chemical_formula_sum   'K1 Tl1 Cl2'
_cell_volume   134.82811678
_cell_formula_units_Z   1
loop_
 _symmetry_equiv_pos_site_id
 _symmetry_equiv_pos_as_xyz
  1  'x, y, z'
loop_
 _atom_site_type_symbol
 _atom_site_label
 _atom_site_symmetry_multiplicity
 _atom_site_fract_x
 _atom_site_fract_y
 _atom_site_fract_z
 _atom_site_occupancy
  K  K0  1  0.00000081  0.00000027  0.99999982  1.0
  Tl  Tl1  1  0.99999997  0.99999996  0.49999989  1.0
  Cl  Cl2  1  0.66666667  0.33333333  0.75773926  1.0
  Cl  Cl3  1  0.33333333  0.66666667  0.24226104  1.0
