# generated using pymatgen
data_KTlF2
_symmetry_space_group_name_H-M   'P 1'
_cell_length_a   3.78191375
_cell_length_b   3.78191069
_cell_length_c   6.89990138
_cell_angle_alpha   89.99999229
_cell_angle_beta   89.99999226
_cell_angle_gamma   120.00022468
_symmetry_Int_Tables_number   1
_chemical_formula_structural   KTlF2
_chemical_formula_sum   'K1 Tl1 F2'
_cell_volume   85.46640190
_cell_formula_units_Z   1
loop_
 _symmetry_equiv_pos_site_id
 _symmetry_equiv_pos_as_xyz
  1  'x, y, z'
loop_
 _atom_site_type_symbol
 _atom_site_label
 _atom_site_symmetry_multiplicity
 _atom_site_fract_x
 _atom_site_fract_y
 _atom_site_fract_z
 _atom_site_occupancy
  K  K0  1  0.00000064  0.00000023  0.99999991  1.0
  Tl  Tl1  1  0.99999978  0.00000009  0.49999990  1.0
  F  F2  1  0.66666667  0.33333333  0.76481621  1.0
  F  F3  1  0.33333333  0.66666667  0.23518398  1.0
