# generated using pymatgen
data_KTlI4
_symmetry_space_group_name_H-M   'P 1'
_cell_length_a   8.49690402
_cell_length_b   9.84668329
_cell_length_c   15.17765288
_cell_angle_alpha   76.83594286
_cell_angle_beta   90.00000042
_cell_angle_gamma   89.99999990
_symmetry_Int_Tables_number   1
_chemical_formula_structural   KTlI4
_chemical_formula_sum   'K4 Tl4 I16'
_cell_volume   1236.48901651
_cell_formula_units_Z   4
loop_
 _symmetry_equiv_pos_site_id
 _symmetry_equiv_pos_as_xyz
  1  'x, y, z'
loop_
 _atom_site_type_symbol
 _atom_site_label
 _atom_site_symmetry_multiplicity
 _atom_site_fract_x
 _atom_site_fract_y
 _atom_site_fract_z
 _atom_site_occupancy
  K  K0  1  0.90324390  0.00000001  0.75000000  1.0
  K  K1  1  0.09675610  0.99999999  0.25000000  1.0
  K  K2  1  0.37574947  0.50000000  0.75000000  1.0
  K  K3  1  0.62425053  0.50000000  0.25000000  1.0
  Tl  Tl4  1  0.78662226  0.70951090  0.55008136  1.0
  Tl  Tl5  1  0.21337774  0.29048910  0.44991864  1.0
  Tl  Tl6  1  0.78662226  0.29048911  0.94991864  1.0
  Tl  Tl7  1  0.21337774  0.70951090  0.05008136  1.0
  I  I8  1  0.24031600  0.78994151  0.85811520  1.0
  I  I9  1  0.75968400  0.21005849  0.14188480  1.0
  I  I10  1  0.24031601  0.21005849  0.64188480  1.0
  I  I11  1  0.75968399  0.78994151  0.35811520  1.0
  I  I12  1  0.57203352  0.85920261  0.63770116  1.0
  I  I13  1  0.42796648  0.14079739  0.36229884  1.0
  I  I14  1  0.57203352  0.14079739  0.86229884  1.0
  I  I15  1  0.42796648  0.85920261  0.13770116  1.0
  I  I16  1  0.71023469  0.42537063  0.61157813  1.0
  I  I17  1  0.28976531  0.57462937  0.38842187  1.0
  I  I18  1  0.71023469  0.57462937  0.88842187  1.0
  I  I19  1  0.28976531  0.42537063  0.11157813  1.0
  I  I20  1  0.90901773  0.78287868  0.10122663  1.0
  I  I21  1  0.09098227  0.21712132  0.89877337  1.0
  I  I22  1  0.90901773  0.21712132  0.39877337  1.0
  I  I23  1  0.09098227  0.78287868  0.60122663  1.0
