# generated using pymatgen
data_KTmI4
_symmetry_space_group_name_H-M   'P 1'
_cell_length_a   7.96329818
_cell_length_b   7.88451491
_cell_length_c   9.17885380
_cell_angle_alpha   89.99999884
_cell_angle_beta   90.00000040
_cell_angle_gamma   92.96548341
_symmetry_Int_Tables_number   1
_chemical_formula_structural   KTmI4
_chemical_formula_sum   'K2 Tm2 I8'
_cell_volume   575.53858928
_cell_formula_units_Z   2
loop_
 _symmetry_equiv_pos_site_id
 _symmetry_equiv_pos_as_xyz
  1  'x, y, z'
loop_
 _atom_site_type_symbol
 _atom_site_label
 _atom_site_symmetry_multiplicity
 _atom_site_fract_x
 _atom_site_fract_y
 _atom_site_fract_z
 _atom_site_occupancy
  K  K0  1  0.00000000  0.75000000  0.84456704  1.0
  K  K1  1  0.00000000  0.25000000  0.15543296  1.0
  Tm  Tm2  1  0.50000001  0.75000001  0.35864304  1.0
  Tm  Tm3  1  0.50000001  0.25000001  0.64135695  1.0
  I  I4  1  0.73192241  0.38797007  0.86287790  1.0
  I  I5  1  0.26807759  0.61202993  0.13712210  1.0
  I  I6  1  0.26807759  0.11202993  0.86287790  1.0
  I  I7  1  0.73192241  0.88797007  0.13712210  1.0
  I  I8  1  0.70984008  0.94245520  0.59752604  1.0
  I  I9  1  0.29015992  0.05754480  0.40247397  1.0
  I  I10  1  0.29015992  0.55754480  0.59752603  1.0
  I  I11  1  0.70984008  0.44245520  0.40247396  1.0
