# generated using pymatgen
data_KYI4
_symmetry_space_group_name_H-M   'P 1'
_cell_length_a   8.77965226
_cell_length_b   9.16011409
_cell_length_c   16.16234567
_cell_angle_alpha   76.01414486
_cell_angle_beta   90.00000184
_cell_angle_gamma   90.00000003
_symmetry_Int_Tables_number   1
_chemical_formula_structural   KYI4
_chemical_formula_sum   'K4 Y4 I16'
_cell_volume   1261.28556442
_cell_formula_units_Z   4
loop_
 _symmetry_equiv_pos_site_id
 _symmetry_equiv_pos_as_xyz
  1  'x, y, z'
loop_
 _atom_site_type_symbol
 _atom_site_label
 _atom_site_symmetry_multiplicity
 _atom_site_fract_x
 _atom_site_fract_y
 _atom_site_fract_z
 _atom_site_occupancy
  K  K0  1  0.90545462  0.99999997  0.75000000  1.0
  K  K1  1  0.09454537  0.99999997  0.25000002  1.0
  K  K2  1  0.39067605  0.49999999  0.75000000  1.0
  K  K3  1  0.60932394  0.50000000  0.25000000  1.0
  Y  Y4  1  0.78867441  0.71454699  0.54678215  1.0
  Y  Y5  1  0.21132556  0.28545303  0.45321785  1.0
  Y  Y6  1  0.78867446  0.28545299  0.95321785  1.0
  Y  Y7  1  0.21132556  0.71454701  0.04678215  1.0
  I  I8  1  0.22652050  0.77466594  0.86234534  1.0
  I  I9  1  0.77347953  0.22533406  0.13765465  1.0
  I  I10  1  0.22652050  0.22533404  0.63765465  1.0
  I  I11  1  0.77347949  0.77466596  0.36234535  1.0
  I  I12  1  0.58350316  0.87315502  0.63400720  1.0
  I  I13  1  0.41649680  0.12684500  0.36599280  1.0
  I  I14  1  0.58350321  0.12684497  0.86599280  1.0
  I  I15  1  0.41649680  0.87315504  0.13400721  1.0
  I  I16  1  0.70902534  0.40454706  0.61266872  1.0
  I  I17  1  0.29097465  0.59545295  0.38733129  1.0
  I  I18  1  0.70902540  0.59545291  0.88733125  1.0
  I  I19  1  0.29097464  0.40454709  0.11266873  1.0
  I  I20  1  0.91251456  0.77795867  0.10315432  1.0
  I  I21  1  0.08748545  0.22204131  0.89684568  1.0
  I  I22  1  0.91251456  0.22204135  0.39684568  1.0
  I  I23  1  0.08748543  0.77795867  0.60315432  1.0
