# generated using pymatgen
data_LaBr2F
_symmetry_space_group_name_H-M   'P 1'
_cell_length_a   7.09602996
_cell_length_b   7.09625547
_cell_length_c   8.04705897
_cell_angle_alpha   58.38937156
_cell_angle_beta   58.39190290
_cell_angle_gamma   67.63341147
_symmetry_Int_Tables_number   1
_chemical_formula_structural   LaBr2F
_chemical_formula_sum   'La2 Br4 F2'
_cell_volume   290.75197277
_cell_formula_units_Z   2
loop_
 _symmetry_equiv_pos_site_id
 _symmetry_equiv_pos_as_xyz
  1  'x, y, z'
loop_
 _atom_site_type_symbol
 _atom_site_label
 _atom_site_symmetry_multiplicity
 _atom_site_fract_x
 _atom_site_fract_y
 _atom_site_fract_z
 _atom_site_occupancy
  La  La0  1  0.49999991  0.99999997  0.50000005  1.0
  La  La1  1  0.00000005  0.50000008  0.99999987  1.0
  Br  Br2  1  0.28269769  0.13006722  0.21677772  1.0
  Br  Br3  1  0.86990367  0.71729200  0.28323808  1.0
  Br  Br4  1  0.13009633  0.28270792  0.71676197  1.0
  Br  Br5  1  0.71730239  0.86993297  0.78322212  1.0
  F  F6  1  0.29099640  0.70900012  0.75000575  1.0
  F  F7  1  0.70900356  0.29099972  0.24999444  1.0
