# generated using pymatgen
data_LaClO
_symmetry_space_group_name_H-M   'P 1'
_cell_length_a   4.44944486
_cell_length_b   4.44944917
_cell_length_c   4.44944579
_cell_angle_alpha   59.99999615
_cell_angle_beta   60.00002946
_cell_angle_gamma   59.99997644
_symmetry_Int_Tables_number   1
_chemical_formula_structural   LaClO
_chemical_formula_sum   'La1 Cl1 O1'
_cell_volume   62.28780227
_cell_formula_units_Z   1
loop_
 _symmetry_equiv_pos_site_id
 _symmetry_equiv_pos_as_xyz
  1  'x, y, z'
loop_
 _atom_site_type_symbol
 _atom_site_label
 _atom_site_symmetry_multiplicity
 _atom_site_fract_x
 _atom_site_fract_y
 _atom_site_fract_z
 _atom_site_occupancy
  La  La0  1  0.24999965  0.25000060  0.25000037  1.0
  Cl  Cl1  1  0.00000036  0.99999950  0.99999985  1.0
  O  O2  1  0.74999999  0.74999991  0.74999978  1.0
