# generated using pymatgen
data_LaCl2F
_symmetry_space_group_name_H-M   'P 1'
_cell_length_a   4.82458898
_cell_length_b   4.80657211
_cell_length_c   4.81927472
_cell_angle_alpha   60.22813610
_cell_angle_beta   59.80077194
_cell_angle_gamma   60.07305491
_symmetry_Int_Tables_number   1
_chemical_formula_structural   LaCl2F
_chemical_formula_sum   'La1 Cl2 F1'
_cell_volume   79.08326139
_cell_formula_units_Z   1
loop_
 _symmetry_equiv_pos_site_id
 _symmetry_equiv_pos_as_xyz
  1  'x, y, z'
loop_
 _atom_site_type_symbol
 _atom_site_label
 _atom_site_symmetry_multiplicity
 _atom_site_fract_x
 _atom_site_fract_y
 _atom_site_fract_z
 _atom_site_occupancy
  La  La0  1  0.00005639  0.99997212  0.99993137  1.0
  Cl  Cl1  1  0.75033442  0.74964382  0.74968181  1.0
  Cl  Cl2  1  0.24967699  0.25035552  0.25030223  1.0
  F  F3  1  0.49993219  0.50002854  0.50008459  1.0
