# generated using pymatgen
data_LaH2Br
_symmetry_space_group_name_H-M   'P 1'
_cell_length_a   4.48251934
_cell_length_b   4.48252552
_cell_length_c   4.48251221
_cell_angle_alpha   59.99988709
_cell_angle_beta   60.00006663
_cell_angle_gamma   59.99993307
_symmetry_Int_Tables_number   1
_chemical_formula_structural   LaH2Br
_chemical_formula_sum   'La1 H2 Br1'
_cell_volume   63.68703854
_cell_formula_units_Z   1
loop_
 _symmetry_equiv_pos_site_id
 _symmetry_equiv_pos_as_xyz
  1  'x, y, z'
loop_
 _atom_site_type_symbol
 _atom_site_label
 _atom_site_symmetry_multiplicity
 _atom_site_fract_x
 _atom_site_fract_y
 _atom_site_fract_z
 _atom_site_occupancy
  La  La0  1  0.99999819  0.00000014  0.00000216  1.0
  H  H1  1  0.75000071  0.74999992  0.74999923  1.0
  H  H2  1  0.25000062  0.24999988  0.24999941  1.0
  Br  Br3  1  0.50000048  0.50000006  0.49999919  1.0
