# generated using pymatgen
data_LaHCl2
_symmetry_space_group_name_H-M   'P 1'
_cell_length_a   3.77917791
_cell_length_b   8.02695861
_cell_length_c   10.75478049
_cell_angle_alpha   75.02456999
_cell_angle_beta   90.07140592
_cell_angle_gamma   89.97030178
_symmetry_Int_Tables_number   1
_chemical_formula_structural   LaHCl2
_chemical_formula_sum   'La2 H2 Cl4'
_cell_volume   315.16867617
_cell_formula_units_Z   2
loop_
 _symmetry_equiv_pos_site_id
 _symmetry_equiv_pos_as_xyz
  1  'x, y, z'
loop_
 _atom_site_type_symbol
 _atom_site_label
 _atom_site_symmetry_multiplicity
 _atom_site_fract_x
 _atom_site_fract_y
 _atom_site_fract_z
 _atom_site_occupancy
  La  La0  1  0.00014343  0.79320530  0.30027423  1.0
  La  La1  1  0.99985648  0.20679472  0.69972570  1.0
  H  H2  1  0.50009251  0.66374155  0.25130518  1.0
  H  H3  1  0.49990736  0.33625830  0.74869498  1.0
  Cl  Cl4  1  0.49961790  0.04004087  0.17664929  1.0
  Cl  Cl5  1  0.50038232  0.95995924  0.82335075  1.0
  Cl  Cl6  1  0.50088053  0.74705860  0.50250717  1.0
  Cl  Cl7  1  0.49911947  0.25294143  0.49749271  1.0
