# generated using pymatgen
data_LaSbO3
_symmetry_space_group_name_H-M   'P 1'
_cell_length_a   4.13069875
_cell_length_b   4.13069874
_cell_length_c   5.18222245
_cell_angle_alpha   89.99982367
_cell_angle_beta   89.99997895
_cell_angle_gamma   89.99999972
_symmetry_Int_Tables_number   1
_chemical_formula_structural   LaSbO3
_chemical_formula_sum   'La1 Sb1 O3'
_cell_volume   88.42256253
_cell_formula_units_Z   1
loop_
 _symmetry_equiv_pos_site_id
 _symmetry_equiv_pos_as_xyz
  1  'x, y, z'
loop_
 _atom_site_type_symbol
 _atom_site_label
 _atom_site_symmetry_multiplicity
 _atom_site_fract_x
 _atom_site_fract_y
 _atom_site_fract_z
 _atom_site_occupancy
  La  La0  1  0.50000055  0.50000370  0.37896082  1.0
  Sb  Sb1  1  0.99999992  0.99999960  0.74304870  1.0
  O  O2  1  0.00000029  0.49999868  0.63901949  1.0
  O  O3  1  0.49999975  0.00000031  0.63901939  1.0
  O  O4  1  0.99999948  0.99999771  0.33622158  1.0
