# generated using pymatgen
data_LaSCl
_symmetry_space_group_name_H-M   'P 1'
_cell_length_a   8.73926127
_cell_length_b   8.73926035
_cell_length_c   8.73925929
_cell_angle_alpha   60.00001356
_cell_angle_beta   60.00000970
_cell_angle_gamma   59.99999549
_symmetry_Int_Tables_number   1
_chemical_formula_structural   LaSCl
_chemical_formula_sum   'La4 S4 Cl4'
_cell_volume   471.96423491
_cell_formula_units_Z   4
loop_
 _symmetry_equiv_pos_site_id
 _symmetry_equiv_pos_as_xyz
  1  'x, y, z'
loop_
 _atom_site_type_symbol
 _atom_site_label
 _atom_site_symmetry_multiplicity
 _atom_site_fract_x
 _atom_site_fract_y
 _atom_site_fract_z
 _atom_site_occupancy
  La  La0  1  0.36694180  0.36694201  0.36694175  1.0
  La  La1  1  0.36694173  0.36694181  0.89917456  1.0
  La  La2  1  0.36694194  0.89917447  0.36694168  1.0
  La  La3  1  0.89917454  0.36694184  0.36694191  1.0
  S  S4  1  0.14291609  0.14291609  0.14291622  1.0
  S  S5  1  0.14291638  0.14291597  0.57125157  1.0
  S  S6  1  0.14291616  0.57125152  0.14291605  1.0
  S  S7  1  0.57125139  0.14291631  0.14291607  1.0
  Cl  Cl8  1  0.60692524  0.60692518  0.60692543  1.0
  Cl  Cl9  1  0.60692533  0.60692510  0.17922433  1.0
  Cl  Cl10  1  0.60692516  0.17922439  0.60692518  1.0
  Cl  Cl11  1  0.17922422  0.60692530  0.60692526  1.0
