# generated using pymatgen
data_LaSeCl
_symmetry_space_group_name_H-M   'P 1'
_cell_length_a   4.99822366
_cell_length_b   4.99824331
_cell_length_c   4.99822704
_cell_angle_alpha   59.99983316
_cell_angle_beta   60.00009904
_cell_angle_gamma   59.99988949
_symmetry_Int_Tables_number   1
_chemical_formula_structural   LaSeCl
_chemical_formula_sum   'La1 Se1 Cl1'
_cell_volume   88.29446430
_cell_formula_units_Z   1
loop_
 _symmetry_equiv_pos_site_id
 _symmetry_equiv_pos_as_xyz
  1  'x, y, z'
loop_
 _atom_site_type_symbol
 _atom_site_label
 _atom_site_symmetry_multiplicity
 _atom_site_fract_x
 _atom_site_fract_y
 _atom_site_fract_z
 _atom_site_occupancy
  La  La0  1  0.99999916  0.00000127  0.99999948  1.0
  Se  Se1  1  0.75000035  0.74999937  0.75000056  1.0
  Cl  Cl2  1  0.50000049  0.49999937  0.49999996  1.0
