# generated using pymatgen
data_Li2ClF
_symmetry_space_group_name_H-M   'P 1'
_cell_length_a   3.10528827
_cell_length_b   6.39443823
_cell_length_c   7.03035973
_cell_angle_alpha   59.71825784
_cell_angle_beta   90.00367929
_cell_angle_gamma   90.00101195
_symmetry_Int_Tables_number   1
_chemical_formula_structural   Li2ClF
_chemical_formula_sum   'Li4 Cl2 F2'
_cell_volume   120.55147051
_cell_formula_units_Z   2
loop_
 _symmetry_equiv_pos_site_id
 _symmetry_equiv_pos_as_xyz
  1  'x, y, z'
loop_
 _atom_site_type_symbol
 _atom_site_label
 _atom_site_symmetry_multiplicity
 _atom_site_fract_x
 _atom_site_fract_y
 _atom_site_fract_z
 _atom_site_occupancy
  Li  Li0  1  0.50000710  0.21979596  0.13484223  1.0
  Li  Li1  1  0.49999281  0.78020380  0.86515798  1.0
  Li  Li2  1  0.50002836  0.78067727  0.37243733  1.0
  Li  Li3  1  0.49997163  0.21932262  0.62756266  1.0
  Cl  Cl4  1  0.50000754  0.50591043  0.24731890  1.0
  Cl  Cl5  1  0.49999167  0.49408989  0.75268043  1.0
  F  F6  1  0.00001761  0.00006852  0.25599016  1.0
  F  F7  1  0.99998328  0.99993150  0.74401031  1.0
