# generated using pymatgen
data_Li2HCl
_symmetry_space_group_name_H-M   'P 1'
_cell_length_a   3.29942805
_cell_length_b   5.81043847
_cell_length_c   5.71218704
_cell_angle_alpha   89.92647545
_cell_angle_beta   90.00254591
_cell_angle_gamma   90.00688367
_symmetry_Int_Tables_number   1
_chemical_formula_structural   Li2HCl
_chemical_formula_sum   'Li4 H2 Cl2'
_cell_volume   109.50895311
_cell_formula_units_Z   2
loop_
 _symmetry_equiv_pos_site_id
 _symmetry_equiv_pos_as_xyz
  1  'x, y, z'
loop_
 _atom_site_type_symbol
 _atom_site_label
 _atom_site_symmetry_multiplicity
 _atom_site_fract_x
 _atom_site_fract_y
 _atom_site_fract_z
 _atom_site_occupancy
  Li  Li0  1  0.25074032  0.27877062  0.08312631  1.0
  Li  Li1  1  0.74929786  0.27877422  0.58313305  1.0
  Li  Li2  1  0.74925022  0.72122550  0.91688027  1.0
  Li  Li3  1  0.25070049  0.72122913  0.41687295  1.0
  H  H4  1  0.25519625  0.49999115  0.74999693  1.0
  H  H5  1  0.74479481  0.50000873  0.24999385  1.0
  Cl  Cl6  1  0.75076119  0.00000923  0.24999875  1.0
  Cl  Cl7  1  0.24925887  0.99999142  0.74999789  1.0
