# generated using pymatgen
data_Li2IF
_symmetry_space_group_name_H-M   'P 1'
_cell_length_a   4.65959872
_cell_length_b   4.65959625
_cell_length_c   4.65959674
_cell_angle_alpha   59.99968449
_cell_angle_beta   59.99966188
_cell_angle_gamma   59.99965203
_symmetry_Int_Tables_number   1
_chemical_formula_structural   Li2IF
_chemical_formula_sum   'Li2 I1 F1'
_cell_volume   71.53636227
_cell_formula_units_Z   1
loop_
 _symmetry_equiv_pos_site_id
 _symmetry_equiv_pos_as_xyz
  1  'x, y, z'
loop_
 _atom_site_type_symbol
 _atom_site_label
 _atom_site_symmetry_multiplicity
 _atom_site_fract_x
 _atom_site_fract_y
 _atom_site_fract_z
 _atom_site_occupancy
  Li  Li0  1  0.24999979  0.24999997  0.24999981  1.0
  Li  Li1  1  0.75000015  0.74999991  0.75000020  1.0
  I  I2  1  0.49999995  0.49999999  0.50000009  1.0
  F  F3  1  0.00000010  0.00000012  0.99999990  1.0
