# generated using pymatgen
data_Li4HN
_symmetry_space_group_name_H-M   'P 1'
_cell_length_a   4.88908899
_cell_length_b   4.84112329
_cell_length_c   9.59967201
_cell_angle_alpha   88.14545628
_cell_angle_beta   90.00000044
_cell_angle_gamma   89.99999961
_symmetry_Int_Tables_number   1
_chemical_formula_structural   Li4HN
_chemical_formula_sum   'Li16 H4 N4'
_cell_volume   227.09257745
_cell_formula_units_Z   4
loop_
 _symmetry_equiv_pos_site_id
 _symmetry_equiv_pos_as_xyz
  1  'x, y, z'
loop_
 _atom_site_type_symbol
 _atom_site_label
 _atom_site_symmetry_multiplicity
 _atom_site_fract_x
 _atom_site_fract_y
 _atom_site_fract_z
 _atom_site_occupancy
  Li  Li0  1  0.76604229  0.77692470  0.39021222  1.0
  Li  Li1  1  0.23395767  0.22307523  0.60978778  1.0
  Li  Li2  1  0.73016609  0.27751853  0.38980381  1.0
  Li  Li3  1  0.23395760  0.77692484  0.89021224  1.0
  Li  Li4  1  0.73786276  0.25605207  0.61185639  1.0
  Li  Li5  1  0.23403594  0.24340279  0.38753966  1.0
  Li  Li6  1  0.76596407  0.75659724  0.61246035  1.0
  Li  Li7  1  0.76596414  0.24340277  0.88753967  1.0
  Li  Li8  1  0.26213725  0.25605202  0.11185639  1.0
  Li  Li9  1  0.23403590  0.75659721  0.11246033  1.0
  Li  Li10  1  0.76604239  0.22307522  0.10978776  1.0
  Li  Li11  1  0.73016603  0.72248137  0.11019620  1.0
  Li  Li12  1  0.73786274  0.74394795  0.88814361  1.0
  Li  Li13  1  0.26213721  0.74394797  0.38814361  1.0
  Li  Li14  1  0.26983392  0.72248140  0.61019619  1.0
  Li  Li15  1  0.26983401  0.27751870  0.88980380  1.0
  H  H16  1  0.49067508  0.50000007  0.25000001  1.0
  H  H17  1  0.99716768  0.00000000  0.75000001  1.0
  H  H18  1  0.50932494  0.49999994  0.74999999  1.0
  H  H19  1  0.00283230  0.00000000  0.24999999  1.0
  N  N20  1  0.99999999  0.49999999  0.50000000  1.0
  N  N21  1  0.00000001  0.50000001  0.00000000  1.0
  N  N22  1  0.50000001  0.00000001  0.00000000  1.0
  N  N23  1  0.49999999  0.99999999  0.50000000  1.0
