# generated using pymatgen
data_LiAlSe2
_symmetry_space_group_name_H-M   'P 1'
_cell_length_a   3.91798549
_cell_length_b   6.66649675
_cell_length_c   7.25189426
_cell_angle_alpha   100.61850378
_cell_angle_beta   89.99998223
_cell_angle_gamma   89.99999741
_symmetry_Int_Tables_number   1
_chemical_formula_structural   LiAlSe2
_chemical_formula_sum   'Li2 Al2 Se4'
_cell_volume   186.17040355
_cell_formula_units_Z   2
loop_
 _symmetry_equiv_pos_site_id
 _symmetry_equiv_pos_as_xyz
  1  'x, y, z'
loop_
 _atom_site_type_symbol
 _atom_site_label
 _atom_site_symmetry_multiplicity
 _atom_site_fract_x
 _atom_site_fract_y
 _atom_site_fract_z
 _atom_site_occupancy
  Li  Li0  1  0.49999998  0.50000000  0.00000000  1.0
  Li  Li1  1  0.50000000  0.50000000  0.50000000  1.0
  Al  Al2  1  0.00000009  0.10544952  0.83695666  1.0
  Al  Al3  1  0.99999992  0.89455048  0.16304334  1.0
  Se  Se4  1  0.50000017  0.22496728  0.69279184  1.0
  Se  Se5  1  0.00000009  0.74406008  0.83151817  1.0
  Se  Se6  1  0.99999990  0.25593992  0.16848183  1.0
  Se  Se7  1  0.49999984  0.77503272  0.30720816  1.0
