# generated using pymatgen
data_LiAlI4
_symmetry_space_group_name_H-M   'P 1'
_cell_length_a   10.20587925
_cell_length_b   6.77943564
_cell_length_c   14.50754464
_cell_angle_alpha   88.88932815
_cell_angle_beta   90.00021017
_cell_angle_gamma   89.99996078
_symmetry_Int_Tables_number   1
_chemical_formula_structural   LiAlI4
_chemical_formula_sum   'Li4 Al4 I16'
_cell_volume   1003.58989569
_cell_formula_units_Z   4
loop_
 _symmetry_equiv_pos_site_id
 _symmetry_equiv_pos_as_xyz
  1  'x, y, z'
loop_
 _atom_site_type_symbol
 _atom_site_label
 _atom_site_symmetry_multiplicity
 _atom_site_fract_x
 _atom_site_fract_y
 _atom_site_fract_z
 _atom_site_occupancy
  Li  Li0  1  0.42931328  0.50000042  0.24999945  1.0
  Li  Li1  1  0.91287777  0.00000017  0.74999972  1.0
  Li  Li2  1  0.57068673  0.49999957  0.75000055  1.0
  Li  Li3  1  0.08712223  0.99999982  0.25000029  1.0
  Al  Al4  1  0.00000000  0.50000000  0.50000000  1.0
  Al  Al5  1  0.00000000  0.50000000  0.00000000  1.0
  Al  Al6  1  0.50000000  0.00000000  0.00000000  1.0
  Al  Al7  1  0.50000000  0.00000000  0.50000000  1.0
  I  I8  1  0.92115579  0.78438500  0.38497526  1.0
  I  I9  1  0.07884421  0.21561500  0.61502475  1.0
  I  I10  1  0.58813559  0.28181880  0.38655288  1.0
  I  I11  1  0.07884422  0.78438467  0.88497558  1.0
  I  I12  1  0.63555907  0.16771355  0.63442793  1.0
  I  I13  1  0.14369838  0.33342057  0.36903616  1.0
  I  I14  1  0.85630161  0.66657943  0.63096384  1.0
  I  I15  1  0.85630136  0.33342087  0.86903552  1.0
  I  I16  1  0.36444113  0.16771299  0.13442743  1.0
  I  I17  1  0.14369864  0.66657913  0.13096448  1.0
  I  I18  1  0.92115578  0.21561533  0.11502443  1.0
  I  I19  1  0.58813605  0.71818076  0.11344734  1.0
  I  I20  1  0.63555886  0.83228702  0.86557256  1.0
  I  I21  1  0.36444094  0.83228645  0.36557206  1.0
  I  I22  1  0.41186441  0.71818121  0.61344712  1.0
  I  I23  1  0.41186394  0.28181924  0.88655265  1.0
