# generated using pymatgen
data_LiAlS2
_symmetry_space_group_name_H-M   'P 1'
_cell_length_a   3.53391308
_cell_length_b   6.86530570
_cell_length_c   7.98648366
_cell_angle_alpha   74.93506723
_cell_angle_beta   89.99999430
_cell_angle_gamma   90.00005453
_symmetry_Int_Tables_number   1
_chemical_formula_structural   LiAlS2
_chemical_formula_sum   'Li2 Al2 S4'
_cell_volume   187.10394764
_cell_formula_units_Z   2
loop_
 _symmetry_equiv_pos_site_id
 _symmetry_equiv_pos_as_xyz
  1  'x, y, z'
loop_
 _atom_site_type_symbol
 _atom_site_label
 _atom_site_symmetry_multiplicity
 _atom_site_fract_x
 _atom_site_fract_y
 _atom_site_fract_z
 _atom_site_occupancy
  Li  Li0  1  0.99999983  0.09725804  0.79562283  1.0
  Li  Li1  1  0.00000018  0.90279418  0.20438469  1.0
  Al  Al2  1  0.49999998  0.50001788  0.00001144  1.0
  Al  Al3  1  0.50000002  0.50003560  0.49994598  1.0
  S  S4  1  0.50000008  0.18925648  0.58448131  1.0
  S  S5  1  0.00000024  0.73407170  0.96325132  1.0
  S  S6  1  0.99999973  0.26595208  0.03677220  1.0
  S  S7  1  0.49999993  0.81061405  0.41553023  1.0
