# generated using pymatgen
data_LiBiS2
_symmetry_space_group_name_H-M   'P 1'
_cell_length_a   4.85352571
_cell_length_b   4.85352500
_cell_length_c   4.85352504
_cell_angle_alpha   59.99993031
_cell_angle_beta   59.99993522
_cell_angle_gamma   59.99993529
_symmetry_Int_Tables_number   1
_chemical_formula_structural   LiBiS2
_chemical_formula_sum   'Li1 Bi1 S2'
_cell_volume   80.84557020
_cell_formula_units_Z   1
loop_
 _symmetry_equiv_pos_site_id
 _symmetry_equiv_pos_as_xyz
  1  'x, y, z'
loop_
 _atom_site_type_symbol
 _atom_site_label
 _atom_site_symmetry_multiplicity
 _atom_site_fract_x
 _atom_site_fract_y
 _atom_site_fract_z
 _atom_site_occupancy
  Li  Li0  1  0.25000095  0.25000097  0.25000094  1.0
  Bi  Bi1  1  0.75000024  0.75000024  0.75000024  1.0
  S  S2  1  0.99999951  0.99999945  0.99999947  1.0
  S  S3  1  0.49999931  0.49999935  0.49999935  1.0
