# generated using pymatgen
data_LiDyI4
_symmetry_space_group_name_H-M   'P 1'
_cell_length_a   7.61277161
_cell_length_b   7.44532819
_cell_length_c   7.45102210
_cell_angle_alpha   83.81809768
_cell_angle_beta   90.03626095
_cell_angle_gamma   89.93577898
_symmetry_Int_Tables_number   1
_chemical_formula_structural   LiDyI4
_chemical_formula_sum   'Li2 Dy2 I8'
_cell_volume   419.86465774
_cell_formula_units_Z   2
loop_
 _symmetry_equiv_pos_site_id
 _symmetry_equiv_pos_as_xyz
  1  'x, y, z'
loop_
 _atom_site_type_symbol
 _atom_site_label
 _atom_site_symmetry_multiplicity
 _atom_site_fract_x
 _atom_site_fract_y
 _atom_site_fract_z
 _atom_site_occupancy
  Li  Li0  1  0.70057549  0.50032000  0.74955565  1.0
  Li  Li1  1  0.29942456  0.49967999  0.25044439  1.0
  Dy  Dy2  1  0.24428219  0.99987172  0.75014812  1.0
  Dy  Dy3  1  0.75571780  0.00012828  0.24985188  1.0
  I  I4  1  0.92939469  0.23292265  0.92246072  1.0
  I  I5  1  0.43031345  0.23271401  0.03155151  1.0
  I  I6  1  0.43048968  0.76735013  0.46844553  1.0
  I  I7  1  0.92962815  0.76714680  0.57750523  1.0
  I  I8  1  0.07037183  0.23285318  0.42249476  1.0
  I  I9  1  0.56951031  0.23264995  0.53155443  1.0
  I  I10  1  0.56968655  0.76728593  0.96844851  1.0
  I  I11  1  0.07060531  0.76707735  0.07753927  1.0
