# generated using pymatgen
data_LiGaO2
_symmetry_space_group_name_H-M   'P 1'
_cell_length_a   5.80747021
_cell_length_b   5.82099708
_cell_length_c   5.80759222
_cell_angle_alpha   102.23354055
_cell_angle_beta   128.10451474
_cell_angle_gamma   53.56582323
_symmetry_Int_Tables_number   1
_chemical_formula_structural   LiGaO2
_chemical_formula_sum   'Li2 Ga2 O4'
_cell_volume   120.52824414
_cell_formula_units_Z   2
loop_
 _symmetry_equiv_pos_site_id
 _symmetry_equiv_pos_as_xyz
  1  'x, y, z'
loop_
 _atom_site_type_symbol
 _atom_site_label
 _atom_site_symmetry_multiplicity
 _atom_site_fract_x
 _atom_site_fract_y
 _atom_site_fract_z
 _atom_site_occupancy
  Li  Li0  1  0.06999613  0.24998942  0.82001079  1.0
  Li  Li1  1  0.93000313  0.75001055  0.17998842  1.0
  Ga  Ga2  1  0.99999999  0.50000019  0.50000022  1.0
  Ga  Ga3  1  0.00000047  0.99999977  0.00000018  1.0
  O  O4  1  0.49841648  0.21598072  0.66688564  1.0
  O  O5  1  0.88287070  0.28400420  0.21442485  1.0
  O  O6  1  0.11712932  0.71599771  0.78557352  1.0
  O  O7  1  0.50158378  0.78401745  0.33311637  1.0
