# generated using pymatgen
data_LiGaS2
_symmetry_space_group_name_H-M   'P 1'
_cell_length_a   4.60038725
_cell_length_b   6.53996627
_cell_length_c   5.95432702
_cell_angle_alpha   81.74907542
_cell_angle_beta   89.99999877
_cell_angle_gamma   90.00000060
_symmetry_Int_Tables_number   1
_chemical_formula_structural   LiGaS2
_chemical_formula_sum   'Li2 Ga2 S4'
_cell_volume   177.28982200
_cell_formula_units_Z   2
loop_
 _symmetry_equiv_pos_site_id
 _symmetry_equiv_pos_as_xyz
  1  'x, y, z'
loop_
 _atom_site_type_symbol
 _atom_site_label
 _atom_site_symmetry_multiplicity
 _atom_site_fract_x
 _atom_site_fract_y
 _atom_site_fract_z
 _atom_site_occupancy
  Li  Li0  1  0.50000002  0.49999745  0.99999783  1.0
  Li  Li1  1  0.50000017  0.50001076  0.49999155  1.0
  Ga  Ga2  1  0.99999987  0.03588433  0.73539132  1.0
  Ga  Ga3  1  0.00000006  0.96410954  0.26461853  1.0
  S  S4  1  0.49999990  0.12623346  0.61494730  1.0
  S  S5  1  0.99999986  0.73192570  0.98983512  1.0
  S  S6  1  0.00000007  0.26806029  0.01018103  1.0
  S  S7  1  0.50000004  0.87377845  0.38503731  1.0
