# generated using pymatgen
data_LiH4Au
_symmetry_space_group_name_H-M   'P 1'
_cell_length_a   3.26358328
_cell_length_b   4.74156051
_cell_length_c   8.84899889
_cell_angle_alpha   92.46473866
_cell_angle_beta   89.99990553
_cell_angle_gamma   90.00038641
_symmetry_Int_Tables_number   1
_chemical_formula_structural   LiH4Au
_chemical_formula_sum   'Li2 H8 Au2'
_cell_volume   136.80695465
_cell_formula_units_Z   2
loop_
 _symmetry_equiv_pos_site_id
 _symmetry_equiv_pos_as_xyz
  1  'x, y, z'
loop_
 _atom_site_type_symbol
 _atom_site_label
 _atom_site_symmetry_multiplicity
 _atom_site_fract_x
 _atom_site_fract_y
 _atom_site_fract_z
 _atom_site_occupancy
  Li  Li0  1  0.00000352  0.00000488  0.50000774  1.0
  Li  Li1  1  0.49999732  0.50000096  0.00000505  1.0
  H  H2  1  0.01867503  0.28964780  0.10820497  1.0
  H  H3  1  0.51868556  0.21035231  0.39178967  1.0
  H  H4  1  0.98130988  0.71032791  0.89178246  1.0
  H  H5  1  0.48132070  0.78967073  0.60821342  1.0
  H  H6  1  0.23387361  0.83578062  0.13537130  1.0
  H  H7  1  0.73388135  0.66421354  0.36462276  1.0
  H  H8  1  0.76610012  0.16422417  0.86461822  1.0
  H  H9  1  0.26611037  0.33576716  0.63537766  1.0
  Au  Au10  1  0.50002127  0.49998259  0.49997748  1.0
  Au  Au11  1  0.00002127  0.00002633  0.00002927  1.0
