# generated using pymatgen
data_LiHoO2
_symmetry_space_group_name_H-M   'P 1'
_cell_length_a   5.63526821
_cell_length_b   5.95597145
_cell_length_c   6.69081767
_cell_angle_alpha   87.73608799
_cell_angle_beta   85.21230732
_cell_angle_gamma   61.76219362
_symmetry_Int_Tables_number   1
_chemical_formula_structural   LiHoO2
_chemical_formula_sum   'Li4 Ho4 O8'
_cell_volume   197.15150711
_cell_formula_units_Z   4
loop_
 _symmetry_equiv_pos_site_id
 _symmetry_equiv_pos_as_xyz
  1  'x, y, z'
loop_
 _atom_site_type_symbol
 _atom_site_label
 _atom_site_symmetry_multiplicity
 _atom_site_fract_x
 _atom_site_fract_y
 _atom_site_fract_z
 _atom_site_occupancy
  Li  Li0  1  0.06982923  0.38966175  0.36084070  1.0
  Li  Li1  1  0.54051307  0.38964004  0.13914961  1.0
  Li  Li2  1  0.93017077  0.61033825  0.63915929  1.0
  Li  Li3  1  0.45948693  0.61035996  0.86085038  1.0
  Ho  Ho4  1  0.82792611  0.84430009  0.10724055  1.0
  Ho  Ho5  1  0.32780081  0.84433610  0.39274014  1.0
  Ho  Ho6  1  0.17207389  0.15569990  0.89275945  1.0
  Ho  Ho7  1  0.67219919  0.15566391  0.60725985  1.0
  O  O8  1  0.57290454  0.85414017  0.74998009  1.0
  O  O9  1  0.42709547  0.14585983  0.25001991  1.0
  O  O10  1  0.95510649  0.80941385  0.42008991  1.0
  O  O11  1  0.23548629  0.80948608  0.07992324  1.0
  O  O12  1  0.04489350  0.19058616  0.57991009  1.0
  O  O13  1  0.76451371  0.19051391  0.92007676  1.0
  O  O14  1  0.73022616  0.53960944  0.24993788  1.0
  O  O15  1  0.26977382  0.46039056  0.75006214  1.0
