# generated using pymatgen
data_LiInBr4
_symmetry_space_group_name_H-M   'P 1'
_cell_length_a   6.65606138
_cell_length_b   7.00306609
_cell_length_c   7.98512227
_cell_angle_alpha   90.00000277
_cell_angle_beta   89.99999614
_cell_angle_gamma   78.75200213
_symmetry_Int_Tables_number   1
_chemical_formula_structural   LiInBr4
_chemical_formula_sum   'Li2 In2 Br8'
_cell_volume   365.05985035
_cell_formula_units_Z   2
loop_
 _symmetry_equiv_pos_site_id
 _symmetry_equiv_pos_as_xyz
  1  'x, y, z'
loop_
 _atom_site_type_symbol
 _atom_site_label
 _atom_site_symmetry_multiplicity
 _atom_site_fract_x
 _atom_site_fract_y
 _atom_site_fract_z
 _atom_site_occupancy
  Li  Li0  1  0.00000000  0.74999998  0.05138672  1.0
  Li  Li1  1  0.00000001  0.25000002  0.94861320  1.0
  In  In2  1  0.49999999  0.75000000  0.63317522  1.0
  In  In3  1  0.50000001  0.24999999  0.36682482  1.0
  Br  Br4  1  0.27068251  0.46767000  0.61153909  1.0
  Br  Br5  1  0.72931747  0.03232998  0.61153910  1.0
  Br  Br6  1  0.72931745  0.53233003  0.38846093  1.0
  Br  Br7  1  0.27068255  0.96767000  0.38846093  1.0
  Br  Br8  1  0.24269638  0.42381460  0.12287447  1.0
  Br  Br9  1  0.75730368  0.07618544  0.12287451  1.0
  Br  Br10  1  0.75730365  0.57618539  0.87712550  1.0
  Br  Br11  1  0.24269630  0.92381456  0.87712549  1.0
