# generated using pymatgen
data_LiLuO2
_symmetry_space_group_name_H-M   'P 1'
_cell_length_a   5.58408145
_cell_length_b   5.89947685
_cell_length_c   6.62466224
_cell_angle_alpha   87.62747892
_cell_angle_beta   84.97580921
_cell_angle_gamma   61.75580820
_symmetry_Int_Tables_number   1
_chemical_formula_structural   LiLuO2
_chemical_formula_sum   'Li4 Lu4 O8'
_cell_volume   191.51501417
_cell_formula_units_Z   4
loop_
 _symmetry_equiv_pos_site_id
 _symmetry_equiv_pos_as_xyz
  1  'x, y, z'
loop_
 _atom_site_type_symbol
 _atom_site_label
 _atom_site_symmetry_multiplicity
 _atom_site_fract_x
 _atom_site_fract_y
 _atom_site_fract_z
 _atom_site_occupancy
  Li  Li0  1  0.06769542  0.39314796  0.35911906  1.0
  Li  Li1  1  0.53915425  0.39316805  0.14087509  1.0
  Li  Li2  1  0.93230626  0.60685598  0.64088184  1.0
  Li  Li3  1  0.46084081  0.60683790  0.85911715  1.0
  Lu  Lu4  1  0.82518833  0.85167777  0.11573498  1.0
  Lu  Lu5  1  0.32316271  0.85166294  0.38428009  1.0
  Lu  Lu6  1  0.17480939  0.14831688  0.88426737  1.0
  Lu  Lu7  1  0.67685089  0.14833006  0.61573424  1.0
  O  O8  1  0.57264871  0.85462625  0.74995895  1.0
  O  O9  1  0.42734413  0.14536415  0.25002067  1.0
  O  O10  1  0.95661785  0.81246538  0.42181310  1.0
  O  O11  1  0.23091913  0.81246829  0.07819980  1.0
  O  O12  1  0.04338706  0.18753749  0.57819196  1.0
  O  O13  1  0.76907479  0.18753004  0.92180798  1.0
  O  O14  1  0.72308255  0.55387051  0.25000009  1.0
  O  O15  1  0.27691775  0.44614033  0.74999764  1.0
