# generated using pymatgen
data_LiNdO2
_symmetry_space_group_name_H-M   'P 1'
_cell_length_a   3.47843171
_cell_length_b   5.74704050
_cell_length_c   6.02124965
_cell_angle_alpha   89.90866932
_cell_angle_beta   90.00000336
_cell_angle_gamma   90.00000993
_symmetry_Int_Tables_number   1
_chemical_formula_structural   LiNdO2
_chemical_formula_sum   'Li2 Nd2 O4'
_cell_volume   120.36876968
_cell_formula_units_Z   2
loop_
 _symmetry_equiv_pos_site_id
 _symmetry_equiv_pos_as_xyz
  1  'x, y, z'
loop_
 _atom_site_type_symbol
 _atom_site_label
 _atom_site_symmetry_multiplicity
 _atom_site_fract_x
 _atom_site_fract_y
 _atom_site_fract_z
 _atom_site_occupancy
  Li  Li0  1  0.25234452  0.49999992  0.74999992  1.0
  Li  Li1  1  0.74765544  0.50000009  0.25000007  1.0
  Nd  Nd2  1  0.75013056  0.00000008  0.25000001  1.0
  Nd  Nd3  1  0.24986945  0.99999992  0.74999998  1.0
  O  O4  1  0.25027218  0.22697290  0.08309429  1.0
  O  O5  1  0.74972790  0.22697286  0.58309435  1.0
  O  O6  1  0.74972783  0.77302708  0.91690572  1.0
  O  O7  1  0.25027211  0.77302714  0.41690565  1.0
