# generated using pymatgen
data_LiNdH4
_symmetry_space_group_name_H-M   'P 1'
_cell_length_a   4.98234171
_cell_length_b   5.41635877
_cell_length_c   5.41008409
_cell_angle_alpha   90.00000007
_cell_angle_beta   89.99999867
_cell_angle_gamma   97.03006568
_symmetry_Int_Tables_number   1
_chemical_formula_structural   LiNdH4
_chemical_formula_sum   'Li2 Nd2 H8'
_cell_volume   144.89974336
_cell_formula_units_Z   2
loop_
 _symmetry_equiv_pos_site_id
 _symmetry_equiv_pos_as_xyz
  1  'x, y, z'
loop_
 _atom_site_type_symbol
 _atom_site_label
 _atom_site_symmetry_multiplicity
 _atom_site_fract_x
 _atom_site_fract_y
 _atom_site_fract_z
 _atom_site_occupancy
  Li  Li0  1  0.49999999  0.25000000  0.69760915  1.0
  Li  Li1  1  0.50000002  0.74999997  0.30239000  1.0
  Nd  Nd2  1  0.00000000  0.75000001  0.75318073  1.0
  Nd  Nd3  1  0.00000000  0.25000000  0.24681944  1.0
  H  H4  1  0.74571105  0.01859022  0.55121672  1.0
  H  H5  1  0.25428895  0.48140979  0.55121672  1.0
  H  H6  1  0.25428904  0.98140983  0.44878346  1.0
  H  H7  1  0.74571096  0.51859017  0.44878346  1.0
  H  H8  1  0.22917741  0.60356808  0.08061155  1.0
  H  H9  1  0.77082260  0.89643193  0.08061155  1.0
  H  H10  1  0.77082253  0.39643193  0.91938862  1.0
  H  H11  1  0.22917746  0.10356808  0.91938861  1.0
