# generated using pymatgen
data_LiNdI4
_symmetry_space_group_name_H-M   'P 1'
_cell_length_a   7.54152042
_cell_length_b   7.60786984
_cell_length_c   7.72982245
_cell_angle_alpha   89.99999995
_cell_angle_beta   89.99999970
_cell_angle_gamma   100.98645089
_symmetry_Int_Tables_number   1
_chemical_formula_structural   LiNdI4
_chemical_formula_sum   'Li2 Nd2 I8'
_cell_volume   435.36952946
_cell_formula_units_Z   2
loop_
 _symmetry_equiv_pos_site_id
 _symmetry_equiv_pos_as_xyz
  1  'x, y, z'
loop_
 _atom_site_type_symbol
 _atom_site_label
 _atom_site_symmetry_multiplicity
 _atom_site_fract_x
 _atom_site_fract_y
 _atom_site_fract_z
 _atom_site_occupancy
  Li  Li0  1  0.50000000  0.25000000  0.66863901  1.0
  Li  Li1  1  0.50000000  0.75000000  0.33136103  1.0
  Nd  Nd2  1  0.00000000  0.75000000  0.75750776  1.0
  Nd  Nd3  1  0.00000000  0.25000000  0.24249223  1.0
  I  I4  1  0.75761782  0.00939881  0.57017468  1.0
  I  I5  1  0.24238217  0.49060119  0.57017468  1.0
  I  I6  1  0.24238218  0.99060119  0.42982531  1.0
  I  I7  1  0.75761782  0.50939882  0.42982531  1.0
  I  I8  1  0.23840803  0.59826544  0.07205280  1.0
  I  I9  1  0.76159197  0.90173455  0.07205280  1.0
  I  I10  1  0.76159197  0.40173456  0.92794719  1.0
  I  I11  1  0.23840803  0.09826544  0.92794719  1.0
