# generated using pymatgen
data_LiTlF2
_symmetry_space_group_name_H-M   'P 1'
_cell_length_a   5.90779602
_cell_length_b   6.31725747
_cell_length_c   7.91477996
_cell_angle_alpha   86.99375832
_cell_angle_beta   83.56049556
_cell_angle_gamma   62.12130694
_symmetry_Int_Tables_number   1
_chemical_formula_structural   LiTlF2
_chemical_formula_sum   'Li4 Tl4 F8'
_cell_volume   259.45782727
_cell_formula_units_Z   4
loop_
 _symmetry_equiv_pos_site_id
 _symmetry_equiv_pos_as_xyz
  1  'x, y, z'
loop_
 _atom_site_type_symbol
 _atom_site_label
 _atom_site_symmetry_multiplicity
 _atom_site_fract_x
 _atom_site_fract_y
 _atom_site_fract_z
 _atom_site_occupancy
  Li  Li0  1  0.05885964  0.39599195  0.35798449  1.0
  Li  Li1  1  0.54515088  0.39600445  0.14201799  1.0
  Li  Li2  1  0.94114037  0.60400802  0.64201551  1.0
  Li  Li3  1  0.45484913  0.60399554  0.85798203  1.0
  Tl  Tl4  1  0.82891900  0.82030039  0.06626133  1.0
  Tl  Tl5  1  0.35078058  0.82029814  0.43374158  1.0
  Tl  Tl6  1  0.17108099  0.17969963  0.93373869  1.0
  Tl  Tl7  1  0.64921941  0.17970183  0.56625845  1.0
  F  F8  1  0.61172738  0.77653636  0.74999912  1.0
  F  F9  1  0.38827260  0.22346366  0.25000085  1.0
  F  F10  1  0.94187623  0.72311606  0.41711671  1.0
  F  F11  1  0.33504243  0.72312360  0.08288538  1.0
  F  F12  1  0.05812380  0.27688390  0.58288327  1.0
  F  F13  1  0.66495756  0.27687644  0.91711460  1.0
  F  F14  1  0.81430482  0.37140092  0.25000200  1.0
  F  F15  1  0.18569519  0.62859910  0.74999798  1.0
