# generated using pymatgen
data_LiTlCl2
_symmetry_space_group_name_H-M   'P 1'
_cell_length_a   7.23617780
_cell_length_b   7.34216640
_cell_length_c   9.62347763
_cell_angle_alpha   85.53202381
_cell_angle_beta   80.89846176
_cell_angle_gamma   60.47232289
_symmetry_Int_Tables_number   1
_chemical_formula_structural   LiTlCl2
_chemical_formula_sum   'Li4 Tl4 Cl8'
_cell_volume   439.27939886
_cell_formula_units_Z   4
loop_
 _symmetry_equiv_pos_site_id
 _symmetry_equiv_pos_as_xyz
  1  'x, y, z'
loop_
 _atom_site_type_symbol
 _atom_site_label
 _atom_site_symmetry_multiplicity
 _atom_site_fract_x
 _atom_site_fract_y
 _atom_site_fract_z
 _atom_site_occupancy
  Li  Li0  1  0.43862401  0.60172592  0.13822629  1.0
  Li  Li1  1  0.56137599  0.39827408  0.86177371  1.0
  Li  Li2  1  0.04028158  0.39829915  0.63822552  1.0
  Li  Li3  1  0.95971842  0.60170085  0.36177448  1.0
  Tl  Tl4  1  0.33153386  0.81277068  0.55545436  1.0
  Tl  Tl5  1  0.85575288  0.81279141  0.94454562  1.0
  Tl  Tl6  1  0.66846614  0.18722932  0.44454564  1.0
  Tl  Tl7  1  0.14424712  0.18720859  0.05545438  1.0
  Cl  Cl8  1  0.09008270  0.81980207  0.24998641  1.0
  Cl  Cl9  1  0.29412892  0.41172712  0.74998311  1.0
  Cl  Cl10  1  0.90991730  0.18019793  0.75001359  1.0
  Cl  Cl11  1  0.70587108  0.58827288  0.25001689  1.0
  Cl  Cl12  1  0.20846554  0.24851313  0.41360002  1.0
  Cl  Cl13  1  0.54297221  0.24855537  0.08640271  1.0
  Cl  Cl14  1  0.79153446  0.75148687  0.58639998  1.0
  Cl  Cl15  1  0.45702779  0.75144463  0.91359729  1.0
