# generated using pymatgen
data_LiTlI2
_symmetry_space_group_name_H-M   'P 1'
_cell_length_a   4.50444871
_cell_length_b   4.50444926
_cell_length_c   8.04488853
_cell_angle_alpha   89.99997805
_cell_angle_beta   90.00001684
_cell_angle_gamma   120.00016654
_symmetry_Int_Tables_number   1
_chemical_formula_structural   LiTlI2
_chemical_formula_sum   'Li1 Tl1 I2'
_cell_volume   141.36219471
_cell_formula_units_Z   1
loop_
 _symmetry_equiv_pos_site_id
 _symmetry_equiv_pos_as_xyz
  1  'x, y, z'
loop_
 _atom_site_type_symbol
 _atom_site_label
 _atom_site_symmetry_multiplicity
 _atom_site_fract_x
 _atom_site_fract_y
 _atom_site_fract_z
 _atom_site_occupancy
  Li  Li0  1  0.99999999  0.00000000  0.00000001  1.0
  Tl  Tl1  1  0.00000001  0.00000000  0.50000000  1.0
  I  I2  1  0.66666667  0.33333333  0.79617026  1.0
  I  I3  1  0.33333333  0.66666667  0.20382973  1.0
