# generated using pymatgen
data_LiTlCl2
_symmetry_space_group_name_H-M   'P 1'
_cell_length_a   3.96172488
_cell_length_b   9.10410261
_cell_length_c   9.78892415
_cell_angle_alpha   54.84582629
_cell_angle_beta   106.90104269
_cell_angle_gamma   128.60132535
_symmetry_Int_Tables_number   1
_chemical_formula_structural   LiTlCl2
_chemical_formula_sum   'Li2 Tl2 Cl4'
_cell_volume   224.29625515
_cell_formula_units_Z   2
loop_
 _symmetry_equiv_pos_site_id
 _symmetry_equiv_pos_as_xyz
  1  'x, y, z'
loop_
 _atom_site_type_symbol
 _atom_site_label
 _atom_site_symmetry_multiplicity
 _atom_site_fract_x
 _atom_site_fract_y
 _atom_site_fract_z
 _atom_site_occupancy
  Li  Li0  1  0.96268876  0.08150860  0.31272217  1.0
  Li  Li1  1  0.03731207  0.91850312  0.68726239  1.0
  Tl  Tl2  1  0.29903274  0.67486757  0.22159213  1.0
  Tl  Tl3  1  0.70100313  0.32515627  0.77840662  1.0
  Cl  Cl4  1  0.38983714  0.10882740  0.16014260  1.0
  Cl  Cl5  1  0.61014755  0.89115719  0.83987770  1.0
  Cl  Cl6  1  0.61013009  0.71004393  0.55812303  1.0
  Cl  Cl7  1  0.38984853  0.28993591  0.44187335  1.0
