# generated using pymatgen
data_LiYI4
_symmetry_space_group_name_H-M   'P 1'
_cell_length_a   7.54451202
_cell_length_b   7.42806664
_cell_length_c   7.54469698
_cell_angle_alpha   89.20830317
_cell_angle_beta   90.00061892
_cell_angle_gamma   90.00018946
_symmetry_Int_Tables_number   1
_chemical_formula_structural   LiYI4
_chemical_formula_sum   'Li2 Y2 I8'
_cell_volume   422.77304189
_cell_formula_units_Z   2
loop_
 _symmetry_equiv_pos_site_id
 _symmetry_equiv_pos_as_xyz
  1  'x, y, z'
loop_
 _atom_site_type_symbol
 _atom_site_label
 _atom_site_symmetry_multiplicity
 _atom_site_fract_x
 _atom_site_fract_y
 _atom_site_fract_z
 _atom_site_occupancy
  Li  Li0  1  0.75626683  0.00000044  0.74999947  1.0
  Li  Li1  1  0.24373343  0.99999956  0.25000045  1.0
  Y  Y2  1  0.74933464  0.49999999  0.25000035  1.0
  Y  Y3  1  0.25066518  0.50000005  0.74999975  1.0
  I  I4  1  0.43698819  0.26945771  0.06603385  1.0
  I  I5  1  0.43698842  0.73054255  0.43396564  1.0
  I  I6  1  0.93744248  0.26894663  0.94049299  1.0
  I  I7  1  0.93744291  0.73105264  0.55950737  1.0
  I  I8  1  0.06255739  0.73105324  0.05950721  1.0
  I  I9  1  0.06255713  0.26894740  0.44049255  1.0
  I  I10  1  0.56301157  0.26945764  0.56603434  1.0
  I  I11  1  0.56301183  0.73054217  0.93396602  1.0
