# generated using pymatgen
data_LuCl2F
_symmetry_space_group_name_H-M   'P 1'
_cell_length_a   4.55806471
_cell_length_b   4.55767983
_cell_length_c   4.55766319
_cell_angle_alpha   59.99620920
_cell_angle_beta   59.99476947
_cell_angle_gamma   59.99414320
_symmetry_Int_Tables_number   1
_chemical_formula_structural   LuCl2F
_chemical_formula_sum   'Lu1 Cl2 F1'
_cell_volume   66.94261797
_cell_formula_units_Z   1
loop_
 _symmetry_equiv_pos_site_id
 _symmetry_equiv_pos_as_xyz
  1  'x, y, z'
loop_
 _atom_site_type_symbol
 _atom_site_label
 _atom_site_symmetry_multiplicity
 _atom_site_fract_x
 _atom_site_fract_y
 _atom_site_fract_z
 _atom_site_occupancy
  Lu  Lu0  1  0.99999992  0.00000033  0.99999993  1.0
  Cl  Cl1  1  0.24999992  0.25000039  0.25000043  1.0
  Cl  Cl2  1  0.75000011  0.74999937  0.74999972  1.0
  F  F3  1  0.50000006  0.49999991  0.49999992  1.0
