# generated using pymatgen
data_LuHgF4
_symmetry_space_group_name_H-M   'P 1'
_cell_length_a   5.27304960
_cell_length_b   6.49664437
_cell_length_c   5.23546402
_cell_angle_alpha   84.60105902
_cell_angle_beta   90.01011668
_cell_angle_gamma   89.98522793
_symmetry_Int_Tables_number   1
_chemical_formula_structural   LuHgF4
_chemical_formula_sum   'Lu2 Hg2 F8'
_cell_volume   178.55629308
_cell_formula_units_Z   2
loop_
 _symmetry_equiv_pos_site_id
 _symmetry_equiv_pos_as_xyz
  1  'x, y, z'
loop_
 _atom_site_type_symbol
 _atom_site_label
 _atom_site_symmetry_multiplicity
 _atom_site_fract_x
 _atom_site_fract_y
 _atom_site_fract_z
 _atom_site_occupancy
  Lu  Lu0  1  0.23952856  0.50001150  0.75000073  1.0
  Lu  Lu1  1  0.76047043  0.49998852  0.24999903  1.0
  Hg  Hg2  1  0.64899756  0.99999943  0.74938996  1.0
  Hg  Hg3  1  0.35100030  0.00000054  0.25061068  1.0
  F  F4  1  0.43634544  0.67212668  0.04151493  1.0
  F  F5  1  0.94352355  0.69017832  0.93259765  1.0
  F  F6  1  0.94359908  0.30987411  0.56744548  1.0
  F  F7  1  0.43617347  0.32827598  0.45826949  1.0
  F  F8  1  0.56382659  0.67172317  0.54173057  1.0
  F  F9  1  0.05640213  0.69012776  0.43255301  1.0
  F  F10  1  0.05647806  0.30982006  0.06740358  1.0
  F  F11  1  0.56365484  0.32787394  0.95848489  1.0
