# generated using pymatgen
data_LuICl2
_symmetry_space_group_name_H-M   'P 1'
_cell_length_a   4.75179486
_cell_length_b   4.75195531
_cell_length_c   6.04817349
_cell_angle_alpha   90.00011220
_cell_angle_beta   89.99829688
_cell_angle_gamma   120.00045438
_symmetry_Int_Tables_number   1
_chemical_formula_structural   LuICl2
_chemical_formula_sum   'Lu1 I1 Cl2'
_cell_volume   118.27226510
_cell_formula_units_Z   1
loop_
 _symmetry_equiv_pos_site_id
 _symmetry_equiv_pos_as_xyz
  1  'x, y, z'
loop_
 _atom_site_type_symbol
 _atom_site_label
 _atom_site_symmetry_multiplicity
 _atom_site_fract_x
 _atom_site_fract_y
 _atom_site_fract_z
 _atom_site_occupancy
  Lu  Lu0  1  0.99999978  0.00000080  0.00000082  1.0
  I  I1  1  0.00000006  0.99999968  0.49999959  1.0
  Cl  Cl2  1  0.66666667  0.33333333  0.90295097  1.0
  Cl  Cl3  1  0.33333333  0.66666667  0.09704862  1.0
