# generated using pymatgen
data_LuSBr
_symmetry_space_group_name_H-M   'P 1'
_cell_length_a   8.04593253
_cell_length_b   8.04590958
_cell_length_c   8.04593966
_cell_angle_alpha   59.99991786
_cell_angle_beta   60.00008222
_cell_angle_gamma   60.00021886
_symmetry_Int_Tables_number   1
_chemical_formula_structural   LuSBr
_chemical_formula_sum   'Lu4 S4 Br4'
_cell_volume   368.31043724
_cell_formula_units_Z   4
loop_
 _symmetry_equiv_pos_site_id
 _symmetry_equiv_pos_as_xyz
  1  'x, y, z'
loop_
 _atom_site_type_symbol
 _atom_site_label
 _atom_site_symmetry_multiplicity
 _atom_site_fract_x
 _atom_site_fract_y
 _atom_site_fract_z
 _atom_site_occupancy
  Lu  Lu0  1  0.58964804  0.13678578  0.13678156  1.0
  Lu  Lu1  1  0.13678375  0.58964816  0.13678401  1.0
  Lu  Lu2  1  0.13678320  0.13678375  0.13678520  1.0
  Lu  Lu3  1  0.13678293  0.13678518  0.58964817  1.0
  S  S4  1  0.36421975  0.36422123  0.36421807  1.0
  S  S5  1  0.90733775  0.36421966  0.36422198  1.0
  S  S6  1  0.36422048  0.36422039  0.90733875  1.0
  S  S7  1  0.36421884  0.90734126  0.36421983  1.0
  Br  Br8  1  0.35640196  0.88119990  0.88119987  1.0
  Br  Br9  1  0.88120000  0.88119743  0.88120070  1.0
  Br  Br10  1  0.88120258  0.35639926  0.88119937  1.0
  Br  Br11  1  0.88119873  0.88119801  0.35640150  1.0
