# generated using pymatgen
data_Mg2AsCl
_symmetry_space_group_name_H-M   'P 1'
_cell_length_a   4.63424929
_cell_length_b   6.05645878
_cell_length_c   6.64656811
_cell_angle_alpha   90.00002037
_cell_angle_beta   89.99999949
_cell_angle_gamma   89.99999847
_symmetry_Int_Tables_number   1
_chemical_formula_structural   Mg2AsCl
_chemical_formula_sum   'Mg4 As2 Cl2'
_cell_volume   186.55015634
_cell_formula_units_Z   2
loop_
 _symmetry_equiv_pos_site_id
 _symmetry_equiv_pos_as_xyz
  1  'x, y, z'
loop_
 _atom_site_type_symbol
 _atom_site_label
 _atom_site_symmetry_multiplicity
 _atom_site_fract_x
 _atom_site_fract_y
 _atom_site_fract_z
 _atom_site_occupancy
  Mg  Mg0  1  0.74999998  0.27799699  0.24999980  1.0
  Mg  Mg1  1  0.75000005  0.27799700  0.74999978  1.0
  Mg  Mg2  1  0.25000010  0.72200300  0.75000019  1.0
  Mg  Mg3  1  0.24999993  0.72200299  0.25000019  1.0
  As  As4  1  0.50000000  0.49999999  0.49999998  1.0
  As  As5  1  0.00000000  0.49999999  0.99999997  1.0
  Cl  Cl6  1  0.49999992  0.99999999  0.00000011  1.0
  Cl  Cl7  1  0.00000002  0.00000004  0.49999998  1.0
