# generated using pymatgen
data_Mg2NF
_symmetry_space_group_name_H-M   'P 1'
_cell_length_a   3.85925249
_cell_length_b   3.85925310
_cell_length_c   3.85925288
_cell_angle_alpha   59.99964465
_cell_angle_beta   59.99967473
_cell_angle_gamma   59.99966923
_symmetry_Int_Tables_number   1
_chemical_formula_structural   Mg2NF
_chemical_formula_sum   'Mg2 N1 F1'
_cell_volume   40.64352566
_cell_formula_units_Z   1
loop_
 _symmetry_equiv_pos_site_id
 _symmetry_equiv_pos_as_xyz
  1  'x, y, z'
loop_
 _atom_site_type_symbol
 _atom_site_label
 _atom_site_symmetry_multiplicity
 _atom_site_fract_x
 _atom_site_fract_y
 _atom_site_fract_z
 _atom_site_occupancy
  Mg  Mg0  1  0.25000018  0.25000014  0.25000022  1.0
  Mg  Mg1  1  0.74999985  0.74999989  0.74999984  1.0
  N  N2  1  0.49999996  0.49999999  0.50000003  1.0
  F  F3  1  0.00000002  0.99999998  0.99999992  1.0
