# generated using pymatgen
data_Mg5TeH8
_symmetry_space_group_name_H-M   'P 1'
_cell_length_a   6.23366101
_cell_length_b   6.22269293
_cell_length_c   6.79592394
_cell_angle_alpha   90.77489358
_cell_angle_beta   67.19525181
_cell_angle_gamma   56.51510127
_symmetry_Int_Tables_number   1
_chemical_formula_structural   Mg5TeH8
_chemical_formula_sum   'Mg5 Te1 H8'
_cell_volume   193.61145795
_cell_formula_units_Z   1
loop_
 _symmetry_equiv_pos_site_id
 _symmetry_equiv_pos_as_xyz
  1  'x, y, z'
loop_
 _atom_site_type_symbol
 _atom_site_label
 _atom_site_symmetry_multiplicity
 _atom_site_fract_x
 _atom_site_fract_y
 _atom_site_fract_z
 _atom_site_occupancy
  Mg  Mg0  1  0.99999596  0.50000036  0.50000366  1.0
  Mg  Mg1  1  0.00000717  0.99999902  0.99999170  1.0
  Mg  Mg2  1  0.50000096  0.00000114  0.99999889  1.0
  Mg  Mg3  1  0.00000277  0.49999935  0.99999825  1.0
  Mg  Mg4  1  0.49999888  0.50000109  0.00000277  1.0
  Te  Te5  1  0.49998175  0.99999523  0.50001250  1.0
  H  H6  1  0.41253414  0.29768194  0.88218649  1.0
  H  H7  1  0.91582712  0.28311805  0.85091869  1.0
  H  H8  1  0.42139457  0.77406751  0.85622407  1.0
  H  H9  1  0.93683486  0.75697008  0.81913627  1.0
  H  H10  1  0.06316750  0.24302575  0.18085661  1.0
  H  H11  1  0.57862095  0.22592228  0.14377428  1.0
  H  H12  1  0.08416444  0.71689527  0.14907942  1.0
  H  H13  1  0.58746894  0.70232293  0.11781639  1.0
