# generated using pymatgen
data_MgGeI4
_symmetry_space_group_name_H-M   'P 1'
_cell_length_a   8.62645235
_cell_length_b   6.98555968
_cell_length_c   7.45236249
_cell_angle_alpha   90.49424815
_cell_angle_beta   89.99999157
_cell_angle_gamma   89.99999385
_symmetry_Int_Tables_number   1
_chemical_formula_structural   MgGeI4
_chemical_formula_sum   'Mg2 Ge2 I8'
_cell_volume   449.06710948
_cell_formula_units_Z   2
loop_
 _symmetry_equiv_pos_site_id
 _symmetry_equiv_pos_as_xyz
  1  'x, y, z'
loop_
 _atom_site_type_symbol
 _atom_site_label
 _atom_site_symmetry_multiplicity
 _atom_site_fract_x
 _atom_site_fract_y
 _atom_site_fract_z
 _atom_site_occupancy
  Mg  Mg0  1  0.90019564  0.99999984  0.74999996  1.0
  Mg  Mg1  1  0.09980149  0.00000016  0.25000004  1.0
  Ge  Ge2  1  0.39278844  0.49999995  0.75000022  1.0
  Ge  Ge3  1  0.60723924  0.50000005  0.24999978  1.0
  I  I4  1  0.11854526  0.23561620  0.56246164  1.0
  I  I5  1  0.88144534  0.23561925  0.06246183  1.0
  I  I6  1  0.61544636  0.25259267  0.58231635  1.0
  I  I7  1  0.38455069  0.25259410  0.08232046  1.0
  I  I8  1  0.61544631  0.74740753  0.91768363  1.0
  I  I9  1  0.38455065  0.74740570  0.41767956  1.0
  I  I10  1  0.11854525  0.76438378  0.93753839  1.0
  I  I11  1  0.88144534  0.76438078  0.43753814  1.0
