# generated using pymatgen
data_MgGeCl4
_symmetry_space_group_name_H-M   'P 1'
_cell_length_a   7.32046970
_cell_length_b   6.07064348
_cell_length_c   6.56770188
_cell_angle_alpha   88.33447391
_cell_angle_beta   90.00000091
_cell_angle_gamma   90.00000001
_symmetry_Int_Tables_number   1
_chemical_formula_structural   MgGeCl4
_chemical_formula_sum   'Mg2 Ge2 Cl8'
_cell_volume   291.74511373
_cell_formula_units_Z   2
loop_
 _symmetry_equiv_pos_site_id
 _symmetry_equiv_pos_as_xyz
  1  'x, y, z'
loop_
 _atom_site_type_symbol
 _atom_site_label
 _atom_site_symmetry_multiplicity
 _atom_site_fract_x
 _atom_site_fract_y
 _atom_site_fract_z
 _atom_site_occupancy
  Mg  Mg0  1  0.86877769  0.99999999  0.74999995  1.0
  Mg  Mg1  1  0.13122226  0.00000000  0.25000005  1.0
  Ge  Ge2  1  0.35660067  0.50000005  0.74999995  1.0
  Ge  Ge3  1  0.64340025  0.49999995  0.25000005  1.0
  Cl  Cl4  1  0.10832324  0.22560848  0.56293526  1.0
  Cl  Cl5  1  0.89167651  0.22560855  0.06293539  1.0
  Cl  Cl6  1  0.61504031  0.25209500  0.59451628  1.0
  Cl  Cl7  1  0.38495950  0.25209503  0.09451624  1.0
  Cl  Cl8  1  0.61504031  0.74790500  0.90548368  1.0
  Cl  Cl9  1  0.38495949  0.74790498  0.40548380  1.0
  Cl  Cl10  1  0.10832325  0.77439153  0.93706475  1.0
  Cl  Cl11  1  0.89167652  0.77439143  0.43706461  1.0
