# generated using pymatgen
data_MgHgCl4
_symmetry_space_group_name_H-M   'P 1'
_cell_length_a   6.17086505
_cell_length_b   6.42047680
_cell_length_c   7.82137467
_cell_angle_alpha   90.00000198
_cell_angle_beta   90.00000191
_cell_angle_gamma   99.99384782
_symmetry_Int_Tables_number   1
_chemical_formula_structural   MgHgCl4
_chemical_formula_sum   'Mg2 Hg2 Cl8'
_cell_volume   305.18002168
_cell_formula_units_Z   2
loop_
 _symmetry_equiv_pos_site_id
 _symmetry_equiv_pos_as_xyz
  1  'x, y, z'
loop_
 _atom_site_type_symbol
 _atom_site_label
 _atom_site_symmetry_multiplicity
 _atom_site_fract_x
 _atom_site_fract_y
 _atom_site_fract_z
 _atom_site_occupancy
  Mg  Mg0  1  0.50000001  0.75000006  0.38595675  1.0
  Mg  Mg1  1  0.50000005  0.24999996  0.61404334  1.0
  Hg  Hg2  1  0.00000013  0.74999985  0.80952679  1.0
  Hg  Hg3  1  0.99999994  0.24999997  0.19047317  1.0
  Cl  Cl4  1  0.73995608  0.43134507  0.86509493  1.0
  Cl  Cl5  1  0.26004390  0.56865500  0.13490503  1.0
  Cl  Cl6  1  0.26004362  0.06865479  0.86509485  1.0
  Cl  Cl7  1  0.73995632  0.93134526  0.13490513  1.0
  Cl  Cl8  1  0.72996498  0.96866347  0.60144973  1.0
  Cl  Cl9  1  0.27003499  0.03133654  0.39855031  1.0
  Cl  Cl10  1  0.27003475  0.53133631  0.60144953  1.0
  Cl  Cl11  1  0.72996523  0.46866371  0.39855043  1.0
