# generated using pymatgen
data_MgICl
_symmetry_space_group_name_H-M   'P 1'
_cell_length_a   4.93249216
_cell_length_b   4.93249235
_cell_length_c   4.93249236
_cell_angle_alpha   59.99992427
_cell_angle_beta   59.99992007
_cell_angle_gamma   59.99991880
_symmetry_Int_Tables_number   1
_chemical_formula_structural   MgICl
_chemical_formula_sum   'Mg1 I1 Cl1'
_cell_volume   84.85617861
_cell_formula_units_Z   1
loop_
 _symmetry_equiv_pos_site_id
 _symmetry_equiv_pos_as_xyz
  1  'x, y, z'
loop_
 _atom_site_type_symbol
 _atom_site_label
 _atom_site_symmetry_multiplicity
 _atom_site_fract_x
 _atom_site_fract_y
 _atom_site_fract_z
 _atom_site_occupancy
  Mg  Mg0  1  0.00000015  0.99999999  0.00000016  1.0
  I  I1  1  0.24999996  0.24999976  0.24999990  1.0
  Cl  Cl2  1  0.74999989  0.75000025  0.74999994  1.0
