# generated using pymatgen
data_MgMnCl4
_symmetry_space_group_name_H-M   'P 1'
_cell_length_a   7.17776576
_cell_length_b   5.82840893
_cell_length_c   6.35466048
_cell_angle_alpha   90.27358482
_cell_angle_beta   90.00000578
_cell_angle_gamma   89.99998144
_symmetry_Int_Tables_number   1
_chemical_formula_structural   MgMnCl4
_chemical_formula_sum   'Mg2 Mn2 Cl8'
_cell_volume   265.84389853
_cell_formula_units_Z   2
loop_
 _symmetry_equiv_pos_site_id
 _symmetry_equiv_pos_as_xyz
  1  'x, y, z'
loop_
 _atom_site_type_symbol
 _atom_site_label
 _atom_site_symmetry_multiplicity
 _atom_site_fract_x
 _atom_site_fract_y
 _atom_site_fract_z
 _atom_site_occupancy
  Mg  Mg0  1  0.35784710  0.50000001  0.75000006  1.0
  Mg  Mg1  1  0.64215289  0.49999999  0.24999993  1.0
  Mn  Mn2  1  0.85379907  0.99999980  0.75000001  1.0
  Mn  Mn3  1  0.14620135  0.00000018  0.24999998  1.0
  Cl  Cl4  1  0.11703262  0.76102675  0.92102584  1.0
  Cl  Cl5  1  0.88296733  0.76102671  0.42102564  1.0
  Cl  Cl6  1  0.61556615  0.73729654  0.92301001  1.0
  Cl  Cl7  1  0.38443373  0.73729651  0.42301008  1.0
  Cl  Cl8  1  0.61556615  0.26270346  0.57698994  1.0
  Cl  Cl9  1  0.38443367  0.26270353  0.07699000  1.0
  Cl  Cl10  1  0.11703263  0.23897340  0.57897426  1.0
  Cl  Cl11  1  0.88296732  0.23897312  0.07897424  1.0
