# generated using pymatgen
data_MgMoF4
_symmetry_space_group_name_H-M   'P 1'
_cell_length_a   5.39483747
_cell_length_b   5.46451837
_cell_length_c   5.39210145
_cell_angle_alpha   83.41276485
_cell_angle_beta   89.99998141
_cell_angle_gamma   89.99989395
_symmetry_Int_Tables_number   1
_chemical_formula_structural   MgMoF4
_chemical_formula_sum   'Mg2 Mo2 F8'
_cell_volume   157.91076717
_cell_formula_units_Z   2
loop_
 _symmetry_equiv_pos_site_id
 _symmetry_equiv_pos_as_xyz
  1  'x, y, z'
loop_
 _atom_site_type_symbol
 _atom_site_label
 _atom_site_symmetry_multiplicity
 _atom_site_fract_x
 _atom_site_fract_y
 _atom_site_fract_z
 _atom_site_occupancy
  Mg  Mg0  1  0.50000008  0.99999988  0.49999999  1.0
  Mg  Mg1  1  0.99999987  0.99999983  0.99999997  1.0
  Mo  Mo2  1  0.49999986  0.49999992  0.00000006  1.0
  Mo  Mo3  1  0.00000028  0.49999995  0.50000003  1.0
  F  F4  1  0.17595099  0.84738499  0.32349484  1.0
  F  F5  1  0.67595072  0.15261476  0.17650584  1.0
  F  F6  1  0.84113326  0.69406710  0.95768365  1.0
  F  F7  1  0.34113306  0.30593264  0.54231608  1.0
  F  F8  1  0.82404908  0.15261495  0.67650523  1.0
  F  F9  1  0.32404917  0.84738527  0.82349409  1.0
  F  F10  1  0.15886701  0.30593303  0.04231633  1.0
  F  F11  1  0.65886663  0.69406769  0.45768389  1.0
