# generated using pymatgen
data_MgPtF4
_symmetry_space_group_name_H-M   'P 1'
_cell_length_a   4.87768100
_cell_length_b   5.40351585
_cell_length_c   5.99535945
_cell_angle_alpha   89.99999978
_cell_angle_beta   90.00000095
_cell_angle_gamma   90.19013370
_symmetry_Int_Tables_number   1
_chemical_formula_structural   MgPtF4
_chemical_formula_sum   'Mg2 Pt2 F8'
_cell_volume   158.01658027
_cell_formula_units_Z   2
loop_
 _symmetry_equiv_pos_site_id
 _symmetry_equiv_pos_as_xyz
  1  'x, y, z'
loop_
 _atom_site_type_symbol
 _atom_site_label
 _atom_site_symmetry_multiplicity
 _atom_site_fract_x
 _atom_site_fract_y
 _atom_site_fract_z
 _atom_site_occupancy
  Mg  Mg0  1  0.00000003  0.74999999  0.85770619  1.0
  Mg  Mg1  1  0.99999997  0.25000001  0.14229382  1.0
  Pt  Pt2  1  0.50000002  0.75000001  0.34452926  1.0
  Pt  Pt3  1  0.49999998  0.24999999  0.65547075  1.0
  F  F4  1  0.78504801  0.42994820  0.89882822  1.0
  F  F5  1  0.21495199  0.57005179  0.10117178  1.0
  F  F6  1  0.21495198  0.07005182  0.89882823  1.0
  F  F7  1  0.78504802  0.92994818  0.10117177  1.0
  F  F8  1  0.75488570  0.90156984  0.62793314  1.0
  F  F9  1  0.24511429  0.09843016  0.37206685  1.0
  F  F10  1  0.24511428  0.59843017  0.62793303  1.0
  F  F11  1  0.75488572  0.40156983  0.37206696  1.0
