# generated using pymatgen
data_MgZnF4
_symmetry_space_group_name_H-M   'P 1'
_cell_length_a   5.74954718
_cell_length_b   5.72049714
_cell_length_c   6.29692085
_cell_angle_alpha   90.00055386
_cell_angle_beta   89.99174709
_cell_angle_gamma   89.99950629
_symmetry_Int_Tables_number   1
_chemical_formula_structural   MgZnF4
_chemical_formula_sum   'Mg2 Zn2 F8'
_cell_volume   207.10741342
_cell_formula_units_Z   2
loop_
 _symmetry_equiv_pos_site_id
 _symmetry_equiv_pos_as_xyz
  1  'x, y, z'
loop_
 _atom_site_type_symbol
 _atom_site_label
 _atom_site_symmetry_multiplicity
 _atom_site_fract_x
 _atom_site_fract_y
 _atom_site_fract_z
 _atom_site_occupancy
  Mg  Mg0  1  0.99999781  0.50013399  0.99999857  1.0
  Mg  Mg1  1  0.00002562  0.99996274  0.50000189  1.0
  Zn  Zn2  1  0.00000690  0.99986468  0.00000211  1.0
  Zn  Zn3  1  0.49997090  0.99999268  0.49999849  1.0
  F  F4  1  0.16144915  0.25518995  0.14977296  1.0
  F  F5  1  0.16138644  0.74482004  0.85028560  1.0
  F  F6  1  0.83854788  0.25519601  0.85022659  1.0
  F  F7  1  0.83861003  0.74481618  0.14971442  1.0
  F  F8  1  0.75186023  0.83265163  0.64412405  1.0
  F  F9  1  0.75185247  0.16736001  0.35587189  1.0
  F  F10  1  0.24814361  0.83266638  0.35588837  1.0
  F  F11  1  0.24814896  0.16734569  0.64411506  1.0
