# generated using pymatgen
data_MnZnCl4
_symmetry_space_group_name_H-M   'P 1'
_cell_length_a   7.17494860
_cell_length_b   5.79518196
_cell_length_c   6.26359370
_cell_angle_alpha   90.11397179
_cell_angle_beta   90.00000298
_cell_angle_gamma   90.00000207
_symmetry_Int_Tables_number   1
_chemical_formula_structural   MnZnCl4
_chemical_formula_sum   'Mn2 Zn2 Cl8'
_cell_volume   260.44054190
_cell_formula_units_Z   2
loop_
 _symmetry_equiv_pos_site_id
 _symmetry_equiv_pos_as_xyz
  1  'x, y, z'
loop_
 _atom_site_type_symbol
 _atom_site_label
 _atom_site_symmetry_multiplicity
 _atom_site_fract_x
 _atom_site_fract_y
 _atom_site_fract_z
 _atom_site_occupancy
  Mn  Mn0  1  0.85358634  0.00000004  0.75000013  1.0
  Mn  Mn1  1  0.14641346  0.99999993  0.24999989  1.0
  Zn  Zn2  1  0.35707970  0.49999998  0.75000002  1.0
  Zn  Zn3  1  0.64292031  0.49999997  0.24999995  1.0
  Cl  Cl4  1  0.11846345  0.75918766  0.91997692  1.0
  Cl  Cl5  1  0.88153659  0.75918771  0.41997688  1.0
  Cl  Cl6  1  0.61508333  0.73528268  0.92897896  1.0
  Cl  Cl7  1  0.38491674  0.73528274  0.42897908  1.0
  Cl  Cl8  1  0.61508336  0.26471731  0.57102098  1.0
  Cl  Cl9  1  0.38491671  0.26471727  0.07102101  1.0
  Cl  Cl10  1  0.11846343  0.24081233  0.58002309  1.0
  Cl  Cl11  1  0.88153658  0.24081236  0.08002310  1.0
