# generated using pymatgen
data_MoIF4
_symmetry_space_group_name_H-M   'P 1'
_cell_length_a   5.87844053
_cell_length_b   5.79014073
_cell_length_c   7.37298569
_cell_angle_alpha   90.00000687
_cell_angle_beta   90.00000721
_cell_angle_gamma   75.75291885
_symmetry_Int_Tables_number   1
_chemical_formula_structural   MoIF4
_chemical_formula_sum   'Mo2 I2 F8'
_cell_volume   243.23580991
_cell_formula_units_Z   2
loop_
 _symmetry_equiv_pos_site_id
 _symmetry_equiv_pos_as_xyz
  1  'x, y, z'
loop_
 _atom_site_type_symbol
 _atom_site_label
 _atom_site_symmetry_multiplicity
 _atom_site_fract_x
 _atom_site_fract_y
 _atom_site_fract_z
 _atom_site_occupancy
  Mo  Mo0  1  0.99999993  0.25000002  0.11476402  1.0
  Mo  Mo1  1  0.00000002  0.74999996  0.88523733  1.0
  I  I2  1  0.50000005  0.24999988  0.66267898  1.0
  I  I3  1  0.49999999  0.75000010  0.33732075  1.0
  F  F4  1  0.80888538  0.45233342  0.32563189  1.0
  F  F5  1  0.19111444  0.04766671  0.32563200  1.0
  F  F6  1  0.19111512  0.54766617  0.67436819  1.0
  F  F7  1  0.80888508  0.95233368  0.67436815  1.0
  F  F8  1  0.81201527  0.98592941  0.08320448  1.0
  F  F9  1  0.18798468  0.51407062  0.08320457  1.0
  F  F10  1  0.18798522  0.01407037  0.91679486  1.0
  F  F11  1  0.81201482  0.48592964  0.91679478  1.0
