# generated using pymatgen
data_MoOF3
_symmetry_space_group_name_H-M   'P 1'
_cell_length_a   5.26092535
_cell_length_b   5.26096895
_cell_length_c   5.26146573
_cell_angle_alpha   133.96678770
_cell_angle_beta   133.96586193
_cell_angle_gamma   67.14254333
_symmetry_Int_Tables_number   1
_chemical_formula_structural   MoOF3
_chemical_formula_sum   'Mo1 O1 F3'
_cell_volume   74.19937855
_cell_formula_units_Z   1
loop_
 _symmetry_equiv_pos_site_id
 _symmetry_equiv_pos_as_xyz
  1  'x, y, z'
loop_
 _atom_site_type_symbol
 _atom_site_label
 _atom_site_symmetry_multiplicity
 _atom_site_fract_x
 _atom_site_fract_y
 _atom_site_fract_z
 _atom_site_occupancy
  Mo  Mo0  1  0.91353701  0.91354233  0.00000080  1.0
  O  O1  1  0.10316043  0.10314609  0.99998266  1.0
  F  F2  1  0.89527922  0.39526674  0.49998286  1.0
  F  F3  1  0.39527584  0.89529417  0.49999332  1.0
  F  F4  1  0.69274851  0.69275167  0.00004037  1.0
