# generated using pymatgen
data_MoOF
_symmetry_space_group_name_H-M   'P 1'
_cell_length_a   3.71957152
_cell_length_b   3.71951584
_cell_length_c   3.71943924
_cell_angle_alpha   60.00238714
_cell_angle_beta   60.00157161
_cell_angle_gamma   59.99908114
_symmetry_Int_Tables_number   1
_chemical_formula_structural   MoOF
_chemical_formula_sum   'Mo1 O1 F1'
_cell_volume   36.38746272
_cell_formula_units_Z   1
loop_
 _symmetry_equiv_pos_site_id
 _symmetry_equiv_pos_as_xyz
  1  'x, y, z'
loop_
 _atom_site_type_symbol
 _atom_site_label
 _atom_site_symmetry_multiplicity
 _atom_site_fract_x
 _atom_site_fract_y
 _atom_site_fract_z
 _atom_site_occupancy
  Mo  Mo0  1  0.99999967  0.99999993  0.99999976  1.0
  O  O1  1  0.24999871  0.24999974  0.24999911  1.0
  F  F2  1  0.75000162  0.75000033  0.75000113  1.0
