# generated using pymatgen
data_MoPbF4
_symmetry_space_group_name_H-M   'P 1'
_cell_length_a   5.52886512
_cell_length_b   5.99177775
_cell_length_c   6.60082703
_cell_angle_alpha   90.00931445
_cell_angle_beta   89.99193056
_cell_angle_gamma   88.35888144
_symmetry_Int_Tables_number   1
_chemical_formula_structural   MoPbF4
_chemical_formula_sum   'Mo2 Pb2 F8'
_cell_volume   218.58072275
_cell_formula_units_Z   2
loop_
 _symmetry_equiv_pos_site_id
 _symmetry_equiv_pos_as_xyz
  1  'x, y, z'
loop_
 _atom_site_type_symbol
 _atom_site_label
 _atom_site_symmetry_multiplicity
 _atom_site_fract_x
 _atom_site_fract_y
 _atom_site_fract_z
 _atom_site_occupancy
  Mo  Mo0  1  0.99999696  0.24999009  0.15573886  1.0
  Mo  Mo1  1  0.00002083  0.75000779  0.84426107  1.0
  Pb  Pb2  1  0.50000483  0.25001047  0.67465696  1.0
  Pb  Pb3  1  0.49999288  0.74999603  0.32534301  1.0
  F  F4  1  0.72678605  0.40203785  0.39530698  1.0
  F  F5  1  0.27323338  0.09795392  0.39532206  1.0
  F  F6  1  0.27317560  0.59798715  0.60471118  1.0
  F  F7  1  0.72672834  0.90207110  0.60465983  1.0
  F  F8  1  0.79509658  0.95392720  0.11659380  1.0
  F  F9  1  0.20494354  0.54599168  0.11668790  1.0
  F  F10  1  0.20493401  0.04604559  0.88336576  1.0
  F  F11  1  0.79508701  0.45398111  0.88335259  1.0
