# generated using pymatgen
data_MoSO
_symmetry_space_group_name_H-M   'P 1'
_cell_length_a   6.86720261
_cell_length_b   6.86721093
_cell_length_c   6.86737853
_cell_angle_alpha   59.99904222
_cell_angle_beta   59.99879082
_cell_angle_gamma   60.00098812
_symmetry_Int_Tables_number   1
_chemical_formula_structural   MoSO
_chemical_formula_sum   'Mo4 S4 O4'
_cell_volume   228.99835740
_cell_formula_units_Z   4
loop_
 _symmetry_equiv_pos_site_id
 _symmetry_equiv_pos_as_xyz
  1  'x, y, z'
loop_
 _atom_site_type_symbol
 _atom_site_label
 _atom_site_symmetry_multiplicity
 _atom_site_fract_x
 _atom_site_fract_y
 _atom_site_fract_z
 _atom_site_occupancy
  Mo  Mo0  1  0.64464220  0.11845238  0.11844444  1.0
  Mo  Mo1  1  0.11843750  0.64465216  0.11845081  1.0
  Mo  Mo2  1  0.11845384  0.11845015  0.11844620  1.0
  Mo  Mo3  1  0.11845977  0.11845007  0.64465039  1.0
  S  S4  1  0.37460423  0.37460691  0.37458052  1.0
  S  S5  1  0.87621089  0.37457624  0.37460998  1.0
  S  S6  1  0.37459182  0.37460555  0.87621256  1.0
  S  S7  1  0.37458897  0.87621205  0.37460169  1.0
  O  O8  1  0.28393628  0.90536026  0.90535033  1.0
  O  O9  1  0.90535843  0.90534556  0.90535988  1.0
  O  O10  1  0.90535376  0.28394600  0.90534872  1.0
  O  O11  1  0.90536032  0.90534266  0.28394348  1.0
