# generated using pymatgen
data_Na2HBr
_symmetry_space_group_name_H-M   'P 1'
_cell_length_a   7.88505187
_cell_length_b   7.88505340
_cell_length_c   8.95149164
_cell_angle_alpha   94.91932484
_cell_angle_beta   94.91928726
_cell_angle_gamma   117.21971218
_symmetry_Int_Tables_number   1
_chemical_formula_structural   Na2HBr
_chemical_formula_sum   'Na8 H4 Br4'
_cell_volume   488.16417314
_cell_formula_units_Z   4
loop_
 _symmetry_equiv_pos_site_id
 _symmetry_equiv_pos_as_xyz
  1  'x, y, z'
loop_
 _atom_site_type_symbol
 _atom_site_label
 _atom_site_symmetry_multiplicity
 _atom_site_fract_x
 _atom_site_fract_y
 _atom_site_fract_z
 _atom_site_occupancy
  Na  Na0  1  0.27578940  0.07168484  0.57225242  1.0
  Na  Na1  1  0.92831589  0.72421075  0.92774806  1.0
  Na  Na2  1  0.72420818  0.92831438  0.42774430  1.0
  Na  Na3  1  0.07168532  0.27579204  0.07225545  1.0
  Na  Na4  1  0.03695840  0.60442972  0.32301355  1.0
  Na  Na5  1  0.39557121  0.96304281  0.17698686  1.0
  Na  Na6  1  0.96303987  0.39556942  0.67698880  1.0
  Na  Na7  1  0.60442927  0.03695806  0.82301066  1.0
  H  H8  1  0.49595712  0.54100415  0.71413516  1.0
  H  H9  1  0.45899578  0.50404296  0.78586462  1.0
  H  H10  1  0.50409226  0.45903805  0.28588312  1.0
  H  H11  1  0.54096202  0.49590769  0.21411689  1.0
  Br  Br12  1  0.89484374  0.71401993  0.58086503  1.0
  Br  Br13  1  0.28598039  0.10515648  0.91913523  1.0
  Br  Br14  1  0.10515116  0.28597993  0.41913847  1.0
  Br  Br15  1  0.71401999  0.89484880  0.08086138  1.0
