# generated using pymatgen
data_Na2HI
_symmetry_space_group_name_H-M   'P 1'
_cell_length_a   4.06498921
_cell_length_b   4.06499676
_cell_length_c   7.21698534
_cell_angle_alpha   89.99860492
_cell_angle_beta   90.00162230
_cell_angle_gamma   120.00127392
_symmetry_Int_Tables_number   1
_chemical_formula_structural   Na2HI
_chemical_formula_sum   'Na2 H1 I1'
_cell_volume   103.27625482
_cell_formula_units_Z   1
loop_
 _symmetry_equiv_pos_site_id
 _symmetry_equiv_pos_as_xyz
  1  'x, y, z'
loop_
 _atom_site_type_symbol
 _atom_site_label
 _atom_site_symmetry_multiplicity
 _atom_site_fract_x
 _atom_site_fract_y
 _atom_site_fract_z
 _atom_site_occupancy
  Na  Na0  1  0.33333333  0.66666667  0.29818937  1.0
  Na  Na1  1  0.66666667  0.33333333  0.70181065  1.0
  H  H2  1  0.99999997  0.99999996  0.49999998  1.0
  I  I3  1  0.00000013  0.00000025  0.00000000  1.0
