# generated using pymatgen
data_Na2IF
_symmetry_space_group_name_H-M   'P 1'
_cell_length_a   3.96897481
_cell_length_b   3.96897434
_cell_length_c   7.05234724
_cell_angle_alpha   89.99865983
_cell_angle_beta   90.00132819
_cell_angle_gamma   120.00117651
_symmetry_Int_Tables_number   1
_chemical_formula_structural   Na2IF
_chemical_formula_sum   'Na2 I1 F1'
_cell_volume   96.20902294
_cell_formula_units_Z   1
loop_
 _symmetry_equiv_pos_site_id
 _symmetry_equiv_pos_as_xyz
  1  'x, y, z'
loop_
 _atom_site_type_symbol
 _atom_site_label
 _atom_site_symmetry_multiplicity
 _atom_site_fract_x
 _atom_site_fract_y
 _atom_site_fract_z
 _atom_site_occupancy
  Na  Na0  1  0.33333333  0.66666667  0.30767404  1.0
  Na  Na1  1  0.66666667  0.33333333  0.69232613  1.0
  I  I2  1  0.99999997  0.99999996  0.99999995  1.0
  F  F3  1  0.00000008  0.00000012  0.49999989  1.0
