# generated using pymatgen
data_Na2IBr
_symmetry_space_group_name_H-M   'P 1'
_cell_length_a   8.38797546
_cell_length_b   8.38808688
_cell_length_c   16.01692449
_cell_angle_alpha   101.26123864
_cell_angle_beta   101.26088528
_cell_angle_gamma   90.87236839
_symmetry_Int_Tables_number   1
_chemical_formula_structural   Na2IBr
_chemical_formula_sum   'Na16 I8 Br8'
_cell_volume   1082.29191646
_cell_formula_units_Z   8
loop_
 _symmetry_equiv_pos_site_id
 _symmetry_equiv_pos_as_xyz
  1  'x, y, z'
loop_
 _atom_site_type_symbol
 _atom_site_label
 _atom_site_symmetry_multiplicity
 _atom_site_fract_x
 _atom_site_fract_y
 _atom_site_fract_z
 _atom_site_occupancy
  Na  Na0  1  0.98194613  0.01805300  0.24999872  1.0
  Na  Na1  1  0.01805424  0.98194591  0.75000171  1.0
  Na  Na2  1  0.34176845  0.65823103  0.24999936  1.0
  Na  Na3  1  0.65823170  0.34177028  0.75000077  1.0
  Na  Na4  1  0.69519545  0.83708634  0.96804921  1.0
  Na  Na5  1  0.16291303  0.30480269  0.53195062  1.0
  Na  Na6  1  0.30480346  0.16291538  0.03195115  1.0
  Na  Na7  1  0.83708778  0.69519642  0.46805009  1.0
  Na  Na8  1  0.50887390  0.09654233  0.26742687  1.0
  Na  Na9  1  0.90345544  0.49112636  0.23257083  1.0
  Na  Na10  1  0.49112549  0.90345794  0.73257203  1.0
  Na  Na11  1  0.09654229  0.50887287  0.76742969  1.0
  Na  Na12  1  0.63543951  0.23327684  0.50843645  1.0
  Na  Na13  1  0.76672525  0.36456088  0.99156358  1.0
  Na  Na14  1  0.36456114  0.76672208  0.49156319  1.0
  Na  Na15  1  0.23327548  0.63543981  0.00843564  1.0
  I  I16  1  0.69022155  0.14515768  0.11809355  1.0
  I  I17  1  0.85484344  0.30977878  0.38190862  1.0
  I  I18  1  0.30978046  0.85484513  0.88190645  1.0
  I  I19  1  0.14515604  0.69021837  0.61809167  1.0
  I  I20  1  0.34759891  0.37422953  0.37705752  1.0
  I  I21  1  0.62576955  0.65240083  0.12294298  1.0
  I  I22  1  0.65240047  0.62576923  0.62294320  1.0
  I  I23  1  0.37423057  0.34760135  0.87705619  1.0
  Br  Br24  1  0.22075958  0.93426041  0.14528831  1.0
  Br  Br25  1  0.06574172  0.77924128  0.35471507  1.0
  Br  Br26  1  0.77923966  0.06574008  0.85471118  1.0
  Br  Br27  1  0.93425768  0.22075742  0.64528557  1.0
  Br  Br28  1  0.57602926  0.87799148  0.38946283  1.0
  Br  Br29  1  0.12200564  0.42397409  0.11053932  1.0
  Br  Br30  1  0.42397165  0.12200655  0.61053611  1.0
  Br  Br31  1  0.87799509  0.57602765  0.88946151  1.0
