# generated using pymatgen
data_Na2SmH4
_symmetry_space_group_name_H-M   'P 1'
_cell_length_a   6.32659576
_cell_length_b   6.32657900
_cell_length_c   7.34303774
_cell_angle_alpha   89.99998306
_cell_angle_beta   89.99997735
_cell_angle_gamma   120.01726712
_symmetry_Int_Tables_number   1
_chemical_formula_structural   Na2SmH4
_chemical_formula_sum   'Na4 Sm2 H8'
_cell_volume   254.48947280
_cell_formula_units_Z   2
loop_
 _symmetry_equiv_pos_site_id
 _symmetry_equiv_pos_as_xyz
  1  'x, y, z'
loop_
 _atom_site_type_symbol
 _atom_site_label
 _atom_site_symmetry_multiplicity
 _atom_site_fract_x
 _atom_site_fract_y
 _atom_site_fract_z
 _atom_site_occupancy
  Na  Na0  1  0.33333333  0.66666667  0.96693547  1.0
  Na  Na1  1  0.66666667  0.33333333  0.46693578  1.0
  Na  Na2  1  0.33333333  0.66666667  0.53306447  1.0
  Na  Na3  1  0.66666667  0.33333333  0.03306427  1.0
  Sm  Sm4  1  0.99991845  0.00008278  0.24999990  1.0
  Sm  Sm5  1  0.00007956  0.99991594  0.75000006  1.0
  H  H6  1  0.33338430  0.66666667  0.24999997  1.0
  H  H7  1  0.66666667  0.33338546  0.75000000  1.0
  H  H8  1  0.50000035  0.49999978  0.50000007  1.0
  H  H9  1  0.50000010  0.00000015  0.50000012  1.0
  H  H10  1  0.50000079  0.50000053  0.00000007  1.0
  H  H11  1  0.00000082  0.50000052  0.49999962  1.0
  H  H12  1  0.50000048  0.00000029  0.00000004  1.0
  H  H13  1  0.00000067  0.50000046  0.00000017  1.0
