# generated using pymatgen
data_Na2SmH4
_symmetry_space_group_name_H-M   'P 1'
_cell_length_a   3.41586468
_cell_length_b   9.32405846
_cell_length_c   12.47533201
_cell_angle_alpha   89.99987861
_cell_angle_beta   89.99999838
_cell_angle_gamma   89.99999913
_symmetry_Int_Tables_number   1
_chemical_formula_structural   Na2SmH4
_chemical_formula_sum   'Na8 Sm4 H16'
_cell_volume   397.33585597
_cell_formula_units_Z   4
loop_
 _symmetry_equiv_pos_site_id
 _symmetry_equiv_pos_as_xyz
  1  'x, y, z'
loop_
 _atom_site_type_symbol
 _atom_site_label
 _atom_site_symmetry_multiplicity
 _atom_site_fract_x
 _atom_site_fract_y
 _atom_site_fract_z
 _atom_site_occupancy
  Na  Na0  1  0.74999996  0.41228463  0.88772863  1.0
  Na  Na1  1  0.74999995  0.91228472  0.61227128  1.0
  Na  Na2  1  0.25000011  0.58771546  0.11227211  1.0
  Na  Na3  1  0.25000005  0.08771559  0.38772813  1.0
  Na  Na4  1  0.75000017  0.90754305  0.09554569  1.0
  Na  Na5  1  0.74999996  0.40754395  0.40445383  1.0
  Na  Na6  1  0.24999996  0.09245688  0.90445487  1.0
  Na  Na7  1  0.24999998  0.59245607  0.59554541  1.0
  Sm  Sm8  1  0.75000001  0.25372083  0.16336501  1.0
  Sm  Sm9  1  0.75000005  0.75372150  0.33663547  1.0
  Sm  Sm10  1  0.25000001  0.74627915  0.83663523  1.0
  Sm  Sm11  1  0.24999995  0.24627860  0.66336429  1.0
  H  H12  1  0.74999993  0.21943181  0.78284720  1.0
  H  H13  1  0.74999998  0.71943136  0.71715227  1.0
  H  H14  1  0.25000006  0.78056862  0.21715218  1.0
  H  H15  1  0.24999996  0.28056901  0.28284824  1.0
  H  H16  1  0.74999992  0.13830029  0.56180665  1.0
  H  H17  1  0.74999995  0.63830069  0.93819401  1.0
  H  H18  1  0.25000009  0.86170080  0.43819322  1.0
  H  H19  1  0.25000000  0.36170027  0.06180633  1.0
  H  H20  1  0.75000005  0.01321975  0.27519229  1.0
  H  H21  1  0.75000004  0.51321899  0.22480776  1.0
  H  H22  1  0.24999995  0.98677999  0.72480749  1.0
  H  H23  1  0.24999997  0.48678063  0.77519249  1.0
  H  H24  1  0.74999997  0.39581828  0.60402772  1.0
  H  H25  1  0.74999994  0.89581981  0.89597250  1.0
  H  H26  1  0.25000004  0.60418040  0.39597108  1.0
  H  H27  1  0.24999999  0.10417886  0.10402864  1.0
