# generated using pymatgen
data_Na2TeO4
_symmetry_space_group_name_H-M   'P 1'
_cell_length_a   6.39883890
_cell_length_b   6.39894689
_cell_length_c   6.39895334
_cell_angle_alpha   132.68933828
_cell_angle_beta   132.68578440
_cell_angle_gamma   69.14563334
_symmetry_Int_Tables_number   1
_chemical_formula_structural   Na2TeO4
_chemical_formula_sum   'Na2 Te1 O4'
_cell_volume   138.93709289
_cell_formula_units_Z   1
loop_
 _symmetry_equiv_pos_site_id
 _symmetry_equiv_pos_as_xyz
  1  'x, y, z'
loop_
 _atom_site_type_symbol
 _atom_site_label
 _atom_site_symmetry_multiplicity
 _atom_site_fract_x
 _atom_site_fract_y
 _atom_site_fract_z
 _atom_site_occupancy
  Na  Na0  1  0.24999971  0.75000145  0.49999602  1.0
  Na  Na1  1  0.00000122  0.00000047  0.99999806  1.0
  Te  Te2  1  0.75000614  0.24999189  0.49996001  1.0
  O  O3  1  0.88494232  0.33208909  0.91570396  1.0
  O  O4  1  0.66791608  0.58356812  0.55283848  1.0
  O  O5  1  0.03071780  0.11508621  0.44716946  1.0
  O  O6  1  0.41641672  0.96926277  0.08433400  1.0
