# generated using pymatgen
data_Na3HS
_symmetry_space_group_name_H-M   'P 1'
_cell_length_a   6.27616332
_cell_length_b   6.67089920
_cell_length_c   8.86436288
_cell_angle_alpha   90.00008946
_cell_angle_beta   90.00003182
_cell_angle_gamma   90.00000000
_symmetry_Int_Tables_number   1
_chemical_formula_structural   Na3HS
_chemical_formula_sum   'Na12 H4 S4'
_cell_volume   371.13006798
_cell_formula_units_Z   4
loop_
 _symmetry_equiv_pos_site_id
 _symmetry_equiv_pos_as_xyz
  1  'x, y, z'
loop_
 _atom_site_type_symbol
 _atom_site_label
 _atom_site_symmetry_multiplicity
 _atom_site_fract_x
 _atom_site_fract_y
 _atom_site_fract_z
 _atom_site_occupancy
  Na  Na0  1  0.69539051  0.30236314  0.45545234  1.0
  Na  Na1  1  0.19539065  0.19763719  0.54455010  1.0
  Na  Na2  1  0.80460956  0.80236324  0.04454549  1.0
  Na  Na3  1  0.30460942  0.69763709  0.95545207  1.0
  Na  Na4  1  0.30460959  0.69763685  0.54454766  1.0
  Na  Na5  1  0.80460945  0.80236282  0.45544990  1.0
  Na  Na6  1  0.19539054  0.19763676  0.95545451  1.0
  Na  Na7  1  0.69539068  0.30236291  0.04454793  1.0
  Na  Na8  1  0.08352988  0.47103805  0.25000125  1.0
  Na  Na9  1  0.58352986  0.02896195  0.74999898  1.0
  Na  Na10  1  0.41647023  0.97103805  0.25000101  1.0
  Na  Na11  1  0.91647023  0.52896195  0.74999875  1.0
  H  H12  1  0.00000005  0.50000000  0.00000000  1.0
  H  H13  1  0.50000005  0.00000000  0.00000000  1.0
  H  H14  1  0.50000005  0.00000000  0.50000000  1.0
  H  H15  1  0.00000005  0.50000000  0.50000000  1.0
  S  S16  1  0.98712792  0.06501764  0.24999988  1.0
  S  S17  1  0.48712792  0.43498236  0.74999986  1.0
  S  S18  1  0.51287220  0.56501764  0.25000014  1.0
  S  S19  1  0.01287218  0.93498236  0.75000012  1.0
