# generated using pymatgen
data_Na4MgH6
_symmetry_space_group_name_H-M   'P 1'
_cell_length_a   6.55448251
_cell_length_b   6.55542491
_cell_length_c   6.55427687
_cell_angle_alpha   89.99999851
_cell_angle_beta   89.99999213
_cell_angle_gamma   90.00003496
_symmetry_Int_Tables_number   1
_chemical_formula_structural   Na4MgH6
_chemical_formula_sum   'Na4 Mg1 H6'
_cell_volume   281.62035342
_cell_formula_units_Z   1
loop_
 _symmetry_equiv_pos_site_id
 _symmetry_equiv_pos_as_xyz
  1  'x, y, z'
loop_
 _atom_site_type_symbol
 _atom_site_label
 _atom_site_symmetry_multiplicity
 _atom_site_fract_x
 _atom_site_fract_y
 _atom_site_fract_z
 _atom_site_occupancy
  Na  Na0  1  0.50000037  0.49999961  0.49999981  1.0
  Na  Na1  1  0.49999979  0.49999962  0.99999992  1.0
  Na  Na2  1  0.49999956  0.00000001  0.50000019  1.0
  Na  Na3  1  0.00000005  0.50000074  0.50000001  1.0
  Mg  Mg4  1  0.99999919  0.00000060  0.00000049  1.0
  H  H5  1  0.50000061  0.99999999  0.94197269  1.0
  H  H6  1  0.99999991  0.94198512  0.49999965  1.0
  H  H7  1  0.99999987  0.05801429  0.49999989  1.0
  H  H8  1  0.50000029  0.00000057  0.05802723  1.0
  H  H9  1  0.05802498  0.49999958  0.99999981  1.0
  H  H10  1  0.94197538  0.49999988  0.00000029  1.0
