# generated using pymatgen
data_Na4Sm3H13
_symmetry_space_group_name_H-M   'P 1'
_cell_length_a   7.83975985
_cell_length_b   7.83950139
_cell_length_c   7.83941474
_cell_angle_alpha   90.00003727
_cell_angle_beta   89.99999035
_cell_angle_gamma   89.99996163
_symmetry_Int_Tables_number   1
_chemical_formula_structural   Na4Sm3H13
_chemical_formula_sum   'Na8 Sm6 H26'
_cell_volume   481.80892664
_cell_formula_units_Z   2
loop_
 _symmetry_equiv_pos_site_id
 _symmetry_equiv_pos_as_xyz
  1  'x, y, z'
loop_
 _atom_site_type_symbol
 _atom_site_label
 _atom_site_symmetry_multiplicity
 _atom_site_fract_x
 _atom_site_fract_y
 _atom_site_fract_z
 _atom_site_occupancy
  Na  Na0  1  0.74998872  0.25000227  0.75000283  1.0
  Na  Na1  1  0.24999765  0.74999853  0.25001107  1.0
  Na  Na2  1  0.75000067  0.74999728  0.25001031  1.0
  Na  Na3  1  0.25001052  0.24999929  0.75000109  1.0
  Na  Na4  1  0.24999228  0.74999620  0.74998590  1.0
  Na  Na5  1  0.74998721  0.25000077  0.24999590  1.0
  Na  Na6  1  0.25001311  0.24999756  0.24999699  1.0
  Na  Na7  1  0.75000550  0.74999522  0.74998780  1.0
  Sm  Sm8  1  0.49999766  0.99999325  0.74994507  1.0
  Sm  Sm9  1  0.00000354  0.25003899  0.49999668  1.0
  Sm  Sm10  1  0.74995499  0.50000709  0.00000406  1.0
  Sm  Sm11  1  0.50000029  0.99999377  0.25006863  1.0
  Sm  Sm12  1  0.99999790  0.74998148  0.49999422  1.0
  Sm  Sm13  1  0.25005733  0.50000219  0.00000199  1.0
  H  H14  1  0.49999966  0.50000405  0.49999749  1.0
  H  H15  1  0.00000023  0.99999615  0.00000233  1.0
  H  H16  1  0.65081822  0.15703068  0.49999875  1.0
  H  H17  1  0.84295249  0.49999957  0.65083494  1.0
  H  H18  1  0.49999959  0.34918096  0.84296280  1.0
  H  H19  1  0.34918113  0.84296960  0.49999838  1.0
  H  H20  1  0.15705309  0.49999906  0.34915662  1.0
  H  H21  1  0.49999908  0.65084435  0.15705169  1.0
  H  H22  1  0.65082312  0.84296735  0.49999878  1.0
  H  H23  1  0.84294632  0.49999987  0.34915500  1.0
  H  H24  1  0.34917698  0.15703334  0.49999828  1.0
  H  H25  1  0.15704881  0.49999852  0.65083683  1.0
  H  H26  1  0.49999879  0.65084436  0.84294756  1.0
  H  H27  1  0.49999993  0.34918120  0.15703659  1.0
  H  H28  1  0.15084071  0.99999709  0.65705536  1.0
  H  H29  1  0.34293564  0.15084780  0.99999988  1.0
  H  H30  1  0.99999966  0.34293117  0.84914806  1.0
  H  H31  1  0.84915815  0.99999768  0.34294505  1.0
  H  H32  1  0.65707737  0.84913109  0.99999939  1.0
  H  H33  1  0.99999884  0.65707531  0.15086222  1.0
  H  H34  1  0.15083901  0.99999659  0.34294635  1.0
  H  H35  1  0.34292457  0.84913376  0.99999907  1.0
  H  H36  1  0.84916139  0.99999840  0.65705400  1.0
  H  H37  1  0.65706232  0.15084312  0.00000002  1.0
  H  H38  1  0.99999998  0.34292579  0.15086026  1.0
  H  H39  1  0.99999856  0.65706727  0.84915076  1.0
