# generated using pymatgen
data_NaAgBr2
_symmetry_space_group_name_H-M   'P 1'
_cell_length_a   4.39156877
_cell_length_b   7.66737107
_cell_length_c   8.57998426
_cell_angle_alpha   73.89257597
_cell_angle_beta   89.99998486
_cell_angle_gamma   89.99998574
_symmetry_Int_Tables_number   1
_chemical_formula_structural   NaAgBr2
_chemical_formula_sum   'Na2 Ag2 Br4'
_cell_volume   277.56198604
_cell_formula_units_Z   2
loop_
 _symmetry_equiv_pos_site_id
 _symmetry_equiv_pos_as_xyz
  1  'x, y, z'
loop_
 _atom_site_type_symbol
 _atom_site_label
 _atom_site_symmetry_multiplicity
 _atom_site_fract_x
 _atom_site_fract_y
 _atom_site_fract_z
 _atom_site_occupancy
  Na  Na0  1  0.49999992  0.99999999  0.50000001  1.0
  Na  Na1  1  0.99999996  0.50000003  0.49999996  1.0
  Ag  Ag2  1  0.50000002  0.50000001  0.99999999  1.0
  Ag  Ag3  1  0.00000000  0.99999999  0.00000000  1.0
  Br  Br4  1  0.00000014  0.60508868  0.17963438  1.0
  Br  Br5  1  0.99999981  0.39491127  0.82036568  1.0
  Br  Br6  1  0.49999996  0.10563161  0.18005613  1.0
  Br  Br7  1  0.50000018  0.89436842  0.81994384  1.0
