# generated using pymatgen
data_NaAlI4
_symmetry_space_group_name_H-M   'P 1'
_cell_length_a   10.48326452
_cell_length_b   8.14856280
_cell_length_c   13.99307793
_cell_angle_alpha   90.59224050
_cell_angle_beta   89.99882697
_cell_angle_gamma   90.00029492
_symmetry_Int_Tables_number   1
_chemical_formula_structural   NaAlI4
_chemical_formula_sum   'Na4 Al4 I16'
_cell_volume   1195.27438517
_cell_formula_units_Z   4
loop_
 _symmetry_equiv_pos_site_id
 _symmetry_equiv_pos_as_xyz
  1  'x, y, z'
loop_
 _atom_site_type_symbol
 _atom_site_label
 _atom_site_symmetry_multiplicity
 _atom_site_fract_x
 _atom_site_fract_y
 _atom_site_fract_z
 _atom_site_occupancy
  Na  Na0  1  0.77836094  0.00000100  0.74999909  1.0
  Na  Na1  1  0.22163908  0.99999929  0.25000128  1.0
  Na  Na2  1  0.48685629  0.50000072  0.75000085  1.0
  Na  Na3  1  0.51314381  0.49999937  0.24999965  1.0
  Al  Al4  1  0.74085589  0.66305468  0.54876524  1.0
  Al  Al5  1  0.25914613  0.33694340  0.45123330  1.0
  Al  Al6  1  0.74085255  0.33694661  0.95123649  1.0
  Al  Al7  1  0.25914552  0.66305125  0.04876556  1.0
  I  I8  1  0.25552743  0.69028115  0.86679802  1.0
  I  I9  1  0.74447280  0.30972159  0.13318469  1.0
  I  I10  1  0.25552641  0.30972723  0.63314772  1.0
  I  I11  1  0.74447324  0.69027540  0.36683532  1.0
  I  I12  1  0.55421934  0.83032778  0.62456468  1.0
  I  I13  1  0.44576048  0.16969104  0.37544296  1.0
  I  I14  1  0.55419728  0.16965076  0.87542753  1.0
  I  I15  1  0.44581986  0.83036520  0.12457870  1.0
  I  I16  1  0.70335503  0.36309536  0.59627939  1.0
  I  I17  1  0.29664200  0.63687480  0.40372528  1.0
  I  I18  1  0.70335231  0.63694104  0.90371513  1.0
  I  I19  1  0.29665012  0.36303394  0.09628865  1.0
  I  I20  1  0.05106722  0.77876412  0.11778664  1.0
  I  I21  1  0.94891554  0.22124418  0.88221798  1.0
  I  I22  1  0.05113326  0.22126793  0.38223128  1.0
  I  I23  1  0.94888744  0.77874215  0.61777459  1.0
