# generated using pymatgen
data_NaCeBr4
_symmetry_space_group_name_H-M   'P 1'
_cell_length_a   6.98466630
_cell_length_b   7.46830204
_cell_length_c   8.42901307
_cell_angle_alpha   90.05700829
_cell_angle_beta   90.00433044
_cell_angle_gamma   93.12596982
_symmetry_Int_Tables_number   1
_chemical_formula_structural   NaCeBr4
_chemical_formula_sum   'Na2 Ce2 Br8'
_cell_volume   439.03319415
_cell_formula_units_Z   2
loop_
 _symmetry_equiv_pos_site_id
 _symmetry_equiv_pos_as_xyz
  1  'x, y, z'
loop_
 _atom_site_type_symbol
 _atom_site_label
 _atom_site_symmetry_multiplicity
 _atom_site_fract_x
 _atom_site_fract_y
 _atom_site_fract_z
 _atom_site_occupancy
  Na  Na0  1  0.50003973  0.25001659  0.35982412  1.0
  Na  Na1  1  0.49993313  0.75004789  0.64011125  1.0
  Ce  Ce2  1  0.00013631  0.24980721  0.84403367  1.0
  Ce  Ce3  1  0.99985681  0.75005615  0.15601138  1.0
  Br  Br4  1  0.26189482  0.41038205  0.62063262  1.0
  Br  Br5  1  0.73796760  0.08956753  0.62038941  1.0
  Br  Br6  1  0.77208370  0.06828388  0.10708557  1.0
  Br  Br7  1  0.22806936  0.43199778  0.10738257  1.0
  Br  Br8  1  0.22793112  0.93166992  0.89282701  1.0
  Br  Br9  1  0.77209895  0.56799263  0.89270548  1.0
  Br  Br10  1  0.26193360  0.91061944  0.37949261  1.0
  Br  Br11  1  0.73805487  0.58955894  0.37950230  1.0
