# generated using pymatgen
data_NaCrF4
_symmetry_space_group_name_H-M   'P 1'
_cell_length_a   5.04332506
_cell_length_b   5.32765222
_cell_length_c   5.98995537
_cell_angle_alpha   89.99999876
_cell_angle_beta   90.00000114
_cell_angle_gamma   92.48746545
_symmetry_Int_Tables_number   1
_chemical_formula_structural   NaCrF4
_chemical_formula_sum   'Na2 Cr2 F8'
_cell_volume   160.79295011
_cell_formula_units_Z   2
loop_
 _symmetry_equiv_pos_site_id
 _symmetry_equiv_pos_as_xyz
  1  'x, y, z'
loop_
 _atom_site_type_symbol
 _atom_site_label
 _atom_site_symmetry_multiplicity
 _atom_site_fract_x
 _atom_site_fract_y
 _atom_site_fract_z
 _atom_site_occupancy
  Na  Na0  1  0.50000000  0.25000000  0.35144059  1.0
  Na  Na1  1  0.50000000  0.75000000  0.64855907  1.0
  Cr  Cr2  1  0.00000001  0.25000000  0.86041079  1.0
  Cr  Cr3  1  0.00000000  0.75000000  0.13958883  1.0
  F  F4  1  0.23853507  0.39262518  0.64835338  1.0
  F  F5  1  0.76146487  0.10737482  0.64835339  1.0
  F  F6  1  0.79654769  0.06072965  0.10364412  1.0
  F  F7  1  0.20345230  0.43927035  0.10364415  1.0
  F  F8  1  0.20345228  0.93927036  0.89635554  1.0
  F  F9  1  0.79654771  0.56072963  0.89635553  1.0
  F  F10  1  0.23853514  0.89262519  0.35164630  1.0
  F  F11  1  0.76146491  0.60737481  0.35164632  1.0
