# generated using pymatgen
data_NaDyO2
_symmetry_space_group_name_H-M   'P 1'
_cell_length_a   3.42602851
_cell_length_b   5.96964308
_cell_length_c   6.00432464
_cell_angle_alpha   82.45247818
_cell_angle_beta   90.00000149
_cell_angle_gamma   89.99998510
_symmetry_Int_Tables_number   1
_chemical_formula_structural   NaDyO2
_chemical_formula_sum   'Na2 Dy2 O4'
_cell_volume   121.73753277
_cell_formula_units_Z   2
loop_
 _symmetry_equiv_pos_site_id
 _symmetry_equiv_pos_as_xyz
  1  'x, y, z'
loop_
 _atom_site_type_symbol
 _atom_site_label
 _atom_site_symmetry_multiplicity
 _atom_site_fract_x
 _atom_site_fract_y
 _atom_site_fract_z
 _atom_site_occupancy
  Na  Na0  1  0.50000019  0.54921651  0.23657594  1.0
  Na  Na1  1  0.49999982  0.45078347  0.76342411  1.0
  Dy  Dy2  1  0.00000000  0.00000000  0.99999994  1.0
  Dy  Dy3  1  0.50000000  0.00000002  0.50000003  1.0
  O  O4  1  0.49999993  0.19487480  0.13807848  1.0
  O  O5  1  0.99999991  0.19904426  0.64428660  1.0
  O  O6  1  0.00000009  0.80095574  0.35571337  1.0
  O  O7  1  0.50000007  0.80512520  0.86192152  1.0
