# generated using pymatgen
data_NaDyI4
_symmetry_space_group_name_H-M   'P 1'
_cell_length_a   7.38655183
_cell_length_b   7.78925540
_cell_length_c   8.92161105
_cell_angle_alpha   89.99950747
_cell_angle_beta   90.00041042
_cell_angle_gamma   93.59343709
_symmetry_Int_Tables_number   1
_chemical_formula_structural   NaDyI4
_chemical_formula_sum   'Na2 Dy2 I8'
_cell_volume   512.30226796
_cell_formula_units_Z   2
loop_
 _symmetry_equiv_pos_site_id
 _symmetry_equiv_pos_as_xyz
  1  'x, y, z'
loop_
 _atom_site_type_symbol
 _atom_site_label
 _atom_site_symmetry_multiplicity
 _atom_site_fract_x
 _atom_site_fract_y
 _atom_site_fract_z
 _atom_site_occupancy
  Na  Na0  1  0.50000005  0.25000020  0.35817007  1.0
  Na  Na1  1  0.49999995  0.74999979  0.64182969  1.0
  Dy  Dy2  1  0.00000108  0.25000017  0.85487927  1.0
  Dy  Dy3  1  0.99999895  0.74999983  0.14512025  1.0
  I  I4  1  0.25147221  0.40401989  0.62675328  1.0
  I  I5  1  0.74852600  0.09597903  0.62675166  1.0
  I  I6  1  0.77172910  0.06279943  0.10802405  1.0
  I  I7  1  0.22827252  0.43720152  0.10802576  1.0
  I  I8  1  0.22827089  0.93720055  0.89197561  1.0
  I  I9  1  0.77172747  0.56279852  0.89197391  1.0
  I  I10  1  0.25147408  0.90402082  0.37324803  1.0
  I  I11  1  0.74852769  0.59598025  0.37324641  1.0
