# generated using pymatgen
data_NaErI4
_symmetry_space_group_name_H-M   'P 1'
_cell_length_a   7.35824734
_cell_length_b   7.76596104
_cell_length_c   8.92128441
_cell_angle_alpha   89.99844391
_cell_angle_beta   90.00342578
_cell_angle_gamma   93.93294254
_symmetry_Int_Tables_number   1
_chemical_formula_structural   NaErI4
_chemical_formula_sum   'Na2 Er2 I8'
_cell_volume   508.59607867
_cell_formula_units_Z   2
loop_
 _symmetry_equiv_pos_site_id
 _symmetry_equiv_pos_as_xyz
  1  'x, y, z'
loop_
 _atom_site_type_symbol
 _atom_site_label
 _atom_site_symmetry_multiplicity
 _atom_site_fract_x
 _atom_site_fract_y
 _atom_site_fract_z
 _atom_site_occupancy
  Na  Na0  1  0.49999827  0.25000230  0.36018897  1.0
  Na  Na1  1  0.50000210  0.74999742  0.63982349  1.0
  Er  Er2  1  0.99999309  0.25000293  0.85756375  1.0
  Er  Er3  1  0.00000251  0.74999716  0.14243078  1.0
  I  I4  1  0.24935708  0.40381714  0.62935475  1.0
  I  I5  1  0.75065142  0.09618759  0.62936235  1.0
  I  I6  1  0.77222340  0.06061586  0.10706017  1.0
  I  I7  1  0.22777116  0.43938016  0.10705567  1.0
  I  I8  1  0.22777724  0.93938369  0.89293656  1.0
  I  I9  1  0.77223117  0.56061952  0.89294212  1.0
  I  I10  1  0.24935114  0.90381299  0.37063688  1.0
  I  I11  1  0.75064142  0.59618324  0.37064254  1.0
