# generated using pymatgen
data_NaErH4
_symmetry_space_group_name_H-M   'P 1'
_cell_length_a   5.46996220
_cell_length_b   5.20954567
_cell_length_c   5.21823642
_cell_angle_alpha   90.00056404
_cell_angle_beta   90.00123367
_cell_angle_gamma   89.20573863
_symmetry_Int_Tables_number   1
_chemical_formula_structural   NaErH4
_chemical_formula_sum   'Na2 Er2 H8'
_cell_volume   148.68467098
_cell_formula_units_Z   2
loop_
 _symmetry_equiv_pos_site_id
 _symmetry_equiv_pos_as_xyz
  1  'x, y, z'
loop_
 _atom_site_type_symbol
 _atom_site_label
 _atom_site_symmetry_multiplicity
 _atom_site_fract_x
 _atom_site_fract_y
 _atom_site_fract_z
 _atom_site_occupancy
  Na  Na0  1  0.50000451  0.24999947  0.25408765  1.0
  Na  Na1  1  0.49999802  0.75000045  0.74591325  1.0
  Er  Er2  1  0.99999295  0.24997769  0.75029280  1.0
  Er  Er3  1  0.99999470  0.75002082  0.24970888  1.0
  H  H4  1  0.21203993  0.53935927  0.54246909  1.0
  H  H5  1  0.78797206  0.96064499  0.54247734  1.0
  H  H6  1  0.78814771  0.04656187  0.04243572  1.0
  H  H7  1  0.21185368  0.45343670  0.04242826  1.0
  H  H8  1  0.21185416  0.95343828  0.95756259  1.0
  H  H9  1  0.78814897  0.54656314  0.95757102  1.0
  H  H10  1  0.21203036  0.03935571  0.45752187  1.0
  H  H11  1  0.78796295  0.46064160  0.45752955  1.0
