# generated using pymatgen
data_NaGaBr4
_symmetry_space_group_name_H-M   'P 1'
_cell_length_a   6.71209113
_cell_length_b   6.75499614
_cell_length_c   7.91559402
_cell_angle_alpha   90.00002123
_cell_angle_beta   89.99998089
_cell_angle_gamma   85.95765933
_symmetry_Int_Tables_number   1
_chemical_formula_structural   NaGaBr4
_chemical_formula_sum   'Na2 Ga2 Br8'
_cell_volume   358.00137099
_cell_formula_units_Z   2
loop_
 _symmetry_equiv_pos_site_id
 _symmetry_equiv_pos_as_xyz
  1  'x, y, z'
loop_
 _atom_site_type_symbol
 _atom_site_label
 _atom_site_symmetry_multiplicity
 _atom_site_fract_x
 _atom_site_fract_y
 _atom_site_fract_z
 _atom_site_occupancy
  Na  Na0  1  0.99999985  0.24999981  0.84299321  1.0
  Na  Na1  1  0.00000010  0.75000014  0.15700694  1.0
  Ga  Ga2  1  0.49999971  0.24999994  0.35599892  1.0
  Ga  Ga3  1  0.50000021  0.74999998  0.64400064  1.0
  Br  Br4  1  0.28643518  0.44569960  0.60054933  1.0
  Br  Br5  1  0.71356489  0.05430048  0.60054924  1.0
  Br  Br6  1  0.73418403  0.10380569  0.14008182  1.0
  Br  Br7  1  0.26581570  0.39619421  0.14008195  1.0
  Br  Br8  1  0.26581607  0.89619431  0.85991779  1.0
  Br  Br9  1  0.73418439  0.60380575  0.85991759  1.0
  Br  Br10  1  0.28643508  0.94569964  0.39945039  1.0
  Br  Br11  1  0.71356480  0.55430043  0.39945017  1.0
