# generated using pymatgen
data_NaHgCl2
_symmetry_space_group_name_H-M   'P 1'
_cell_length_a   5.50995696
_cell_length_b   6.05071255
_cell_length_c   7.55686368
_cell_angle_alpha   66.44976698
_cell_angle_beta   68.73764850
_cell_angle_gamma   89.90399524
_symmetry_Int_Tables_number   1
_chemical_formula_structural   NaHgCl2
_chemical_formula_sum   'Na2 Hg2 Cl4'
_cell_volume   212.18831403
_cell_formula_units_Z   2
loop_
 _symmetry_equiv_pos_site_id
 _symmetry_equiv_pos_as_xyz
  1  'x, y, z'
loop_
 _atom_site_type_symbol
 _atom_site_label
 _atom_site_symmetry_multiplicity
 _atom_site_fract_x
 _atom_site_fract_y
 _atom_site_fract_z
 _atom_site_occupancy
  Na  Na0  1  0.63288345  0.37355792  0.24117513  1.0
  Na  Na1  1  0.36711592  0.62644423  0.75882462  1.0
  Hg  Hg2  1  0.88363994  0.14147940  0.72550398  1.0
  Hg  Hg3  1  0.11635922  0.85851977  0.27449651  1.0
  Cl  Cl4  1  0.39100458  0.14680600  0.71113400  1.0
  Cl  Cl5  1  0.84929609  0.60728167  0.79409154  1.0
  Cl  Cl6  1  0.60899715  0.85319308  0.28886606  1.0
  Cl  Cl7  1  0.15070366  0.39271794  0.20590817  1.0
