# generated using pymatgen
data_NaHgCl2
_symmetry_space_group_name_H-M   'P 1'
_cell_length_a   3.91083824
_cell_length_b   8.69541448
_cell_length_c   7.72311644
_cell_angle_alpha   84.78030461
_cell_angle_beta   90.00002673
_cell_angle_gamma   90.00004848
_symmetry_Int_Tables_number   1
_chemical_formula_structural   NaHgCl2
_chemical_formula_sum   'Na2 Hg2 Cl4'
_cell_volume   261.54597472
_cell_formula_units_Z   2
loop_
 _symmetry_equiv_pos_site_id
 _symmetry_equiv_pos_as_xyz
  1  'x, y, z'
loop_
 _atom_site_type_symbol
 _atom_site_label
 _atom_site_symmetry_multiplicity
 _atom_site_fract_x
 _atom_site_fract_y
 _atom_site_fract_z
 _atom_site_occupancy
  Na  Na0  1  0.00000003  0.88669645  0.34000278  1.0
  Na  Na1  1  0.00000001  0.11330318  0.65999701  1.0
  Hg  Hg2  1  0.49999998  0.56408256  0.20524207  1.0
  Hg  Hg3  1  0.49999993  0.43591745  0.79475784  1.0
  Cl  Cl4  1  0.50000003  0.05702013  0.12452086  1.0
  Cl  Cl5  1  0.50000000  0.94298006  0.87547949  1.0
  Cl  Cl6  1  0.50000010  0.80208881  0.57555505  1.0
  Cl  Cl7  1  0.49999992  0.19791136  0.42444491  1.0
