# generated using pymatgen
data_NaHoO2
_symmetry_space_group_name_H-M   'P 1'
_cell_length_a   3.36009842
_cell_length_b   3.36009875
_cell_length_c   5.92840999
_cell_angle_alpha   89.99999783
_cell_angle_beta   90.00002394
_cell_angle_gamma   120.00004375
_symmetry_Int_Tables_number   1
_chemical_formula_structural   NaHoO2
_chemical_formula_sum   'Na1 Ho1 O2'
_cell_volume   57.96591693
_cell_formula_units_Z   1
loop_
 _symmetry_equiv_pos_site_id
 _symmetry_equiv_pos_as_xyz
  1  'x, y, z'
loop_
 _atom_site_type_symbol
 _atom_site_label
 _atom_site_symmetry_multiplicity
 _atom_site_fract_x
 _atom_site_fract_y
 _atom_site_fract_z
 _atom_site_occupancy
  Na  Na0  1  0.99999980  0.99999994  0.00000001  1.0
  Ho  Ho1  1  0.00000009  0.99999995  0.49999996  1.0
  O  O2  1  0.33333333  0.66666667  0.29566656  1.0
  O  O3  1  0.66666667  0.33333333  0.70433347  1.0
