# generated using pymatgen
data_NaInBr4
_symmetry_space_group_name_H-M   'P 1'
_cell_length_a   7.47046165
_cell_length_b   8.19119701
_cell_length_c   15.05077006
_cell_angle_alpha   86.91327546
_cell_angle_beta   89.99999320
_cell_angle_gamma   89.99999991
_symmetry_Int_Tables_number   1
_chemical_formula_structural   NaInBr4
_chemical_formula_sum   'Na4 In4 Br16'
_cell_volume   919.65087730
_cell_formula_units_Z   4
loop_
 _symmetry_equiv_pos_site_id
 _symmetry_equiv_pos_as_xyz
  1  'x, y, z'
loop_
 _atom_site_type_symbol
 _atom_site_label
 _atom_site_symmetry_multiplicity
 _atom_site_fract_x
 _atom_site_fract_y
 _atom_site_fract_z
 _atom_site_occupancy
  Na  Na0  1  0.99581915  0.84938847  0.37005084  1.0
  Na  Na1  1  0.49581923  0.15061158  0.12994929  1.0
  Na  Na2  1  0.00418083  0.15061153  0.62994915  1.0
  Na  Na3  1  0.50418076  0.84938841  0.87005071  1.0
  In  In4  1  0.19076416  0.70153557  0.60146523  1.0
  In  In5  1  0.69076415  0.29846444  0.89853472  1.0
  In  In6  1  0.80923579  0.29846447  0.39853477  1.0
  In  In7  1  0.30923590  0.70153554  0.10146528  1.0
  Br  Br8  1  0.32160937  0.68428444  0.44714935  1.0
  Br  Br9  1  0.82160934  0.31571557  0.05285061  1.0
  Br  Br10  1  0.67839066  0.31571557  0.55285062  1.0
  Br  Br11  1  0.17839064  0.68428442  0.94714938  1.0
  Br  Br12  1  0.12706173  0.18744428  0.42926419  1.0
  Br  Br13  1  0.62706173  0.81255578  0.07073585  1.0
  Br  Br14  1  0.87293829  0.81255573  0.57073581  1.0
  Br  Br15  1  0.37293826  0.18744422  0.92926415  1.0
  Br  Br16  1  0.33531372  0.93682830  0.68323134  1.0
  Br  Br17  1  0.83531371  0.06317165  0.81676861  1.0
  Br  Br18  1  0.66468628  0.06317171  0.31676866  1.0
  Br  Br19  1  0.16468627  0.93682837  0.18323140  1.0
  Br  Br20  1  0.20287499  0.43860777  0.69698108  1.0
  Br  Br21  1  0.70287498  0.56139230  0.80301886  1.0
  Br  Br22  1  0.79712502  0.56139218  0.30301893  1.0
  Br  Br23  1  0.29712503  0.43860770  0.19698115  1.0
