# generated using pymatgen
data_NaLaBr4
_symmetry_space_group_name_H-M   'P 1'
_cell_length_a   7.00608817
_cell_length_b   7.52015299
_cell_length_c   8.46828169
_cell_angle_alpha   89.99998870
_cell_angle_beta   89.99999922
_cell_angle_gamma   92.81010430
_symmetry_Int_Tables_number   1
_chemical_formula_structural   NaLaBr4
_chemical_formula_sum   'Na2 La2 Br8'
_cell_volume   445.63061580
_cell_formula_units_Z   2
loop_
 _symmetry_equiv_pos_site_id
 _symmetry_equiv_pos_as_xyz
  1  'x, y, z'
loop_
 _atom_site_type_symbol
 _atom_site_label
 _atom_site_symmetry_multiplicity
 _atom_site_fract_x
 _atom_site_fract_y
 _atom_site_fract_z
 _atom_site_occupancy
  Na  Na0  1  0.50000001  0.24999996  0.36054368  1.0
  Na  Na1  1  0.50000006  0.74999998  0.63945614  1.0
  La  La2  1  0.00000007  0.25000004  0.84094861  1.0
  La  La3  1  0.99999980  0.74999999  0.15905114  1.0
  Br  Br4  1  0.26447253  0.41213553  0.61887278  1.0
  Br  Br5  1  0.73552748  0.08786436  0.61887281  1.0
  Br  Br6  1  0.77127092  0.06919747  0.10738549  1.0
  Br  Br7  1  0.22872921  0.43080265  0.10738564  1.0
  Br  Br8  1  0.22872910  0.93080269  0.89261416  1.0
  Br  Br9  1  0.77127068  0.56919737  0.89261411  1.0
  Br  Br10  1  0.26447275  0.91213558  0.38112672  1.0
  Br  Br11  1  0.73552737  0.58786437  0.38112674  1.0
