# generated using pymatgen
data_NaLiH2
_symmetry_space_group_name_H-M   'P 1'
_cell_length_a   5.94000883
_cell_length_b   5.94001020
_cell_length_c   11.01496464
_cell_angle_alpha   82.20356724
_cell_angle_beta   82.20357039
_cell_angle_gamma   89.98754194
_symmetry_Int_Tables_number   1
_chemical_formula_structural   NaLiH2
_chemical_formula_sum   'Na8 Li8 H16'
_cell_volume   381.43147803
_cell_formula_units_Z   8
loop_
 _symmetry_equiv_pos_site_id
 _symmetry_equiv_pos_as_xyz
  1  'x, y, z'
loop_
 _atom_site_type_symbol
 _atom_site_label
 _atom_site_symmetry_multiplicity
 _atom_site_fract_x
 _atom_site_fract_y
 _atom_site_fract_z
 _atom_site_occupancy
  Na  Na0  1  0.22357746  0.84736131  0.11516056  1.0
  Na  Na1  1  0.15263870  0.77642261  0.38483935  1.0
  Na  Na2  1  0.77642258  0.15263869  0.88483943  1.0
  Na  Na3  1  0.84736129  0.22357740  0.61516064  1.0
  Na  Na4  1  0.65452183  0.77941066  0.37848059  1.0
  Na  Na5  1  0.22058937  0.34547816  0.12151938  1.0
  Na  Na6  1  0.34547819  0.22058928  0.62151944  1.0
  Na  Na7  1  0.77941069  0.65452184  0.87848060  1.0
  Li  Li8  1  0.71362779  0.09227763  0.14806360  1.0
  Li  Li9  1  0.90772236  0.28637220  0.35193657  1.0
  Li  Li10  1  0.28637220  0.90772242  0.85193643  1.0
  Li  Li11  1  0.09227757  0.71362782  0.64806338  1.0
  Li  Li12  1  0.41595501  0.28611638  0.35336663  1.0
  Li  Li13  1  0.71388360  0.58404491  0.14663356  1.0
  Li  Li14  1  0.58404498  0.71388362  0.64663336  1.0
  Li  Li15  1  0.28611639  0.41595508  0.85336642  1.0
  H  H16  1  0.94093878  0.05906129  0.25000003  1.0
  H  H17  1  0.05906127  0.94093872  0.74999996  1.0
  H  H18  1  0.43487379  0.56512609  0.25000005  1.0
  H  H19  1  0.56512620  0.43487383  0.74999998  1.0
  H  H20  1  0.73821826  0.86340867  0.04579470  1.0
  H  H21  1  0.13659129  0.26178172  0.45420553  1.0
  H  H22  1  0.26178176  0.13659138  0.95420529  1.0
  H  H23  1  0.86340861  0.73821825  0.54579453  1.0
  H  H24  1  0.43472891  0.05914116  0.25022541  1.0
  H  H25  1  0.94085892  0.56527100  0.24977466  1.0
  H  H26  1  0.56527106  0.94085886  0.74977463  1.0
  H  H27  1  0.05914112  0.43472900  0.75022531  1.0
  H  H28  1  0.63571782  0.26110403  0.45699915  1.0
  H  H29  1  0.73889597  0.36428221  0.04300089  1.0
  H  H30  1  0.36428218  0.73889596  0.54300087  1.0
  H  H31  1  0.26110406  0.63571780  0.95699908  1.0
