# generated using pymatgen
data_NaLiBr2
_symmetry_space_group_name_H-M   'P 1'
_cell_length_a   7.86864460
_cell_length_b   7.86864595
_cell_length_c   14.14696933
_cell_angle_alpha   81.97993703
_cell_angle_beta   81.97992715
_cell_angle_gamma   89.97726243
_symmetry_Int_Tables_number   1
_chemical_formula_structural   NaLiBr2
_chemical_formula_sum   'Na8 Li8 Br16'
_cell_volume   858.70490844
_cell_formula_units_Z   8
loop_
 _symmetry_equiv_pos_site_id
 _symmetry_equiv_pos_as_xyz
  1  'x, y, z'
loop_
 _atom_site_type_symbol
 _atom_site_label
 _atom_site_symmetry_multiplicity
 _atom_site_fract_x
 _atom_site_fract_y
 _atom_site_fract_z
 _atom_site_occupancy
  Na  Na0  1  0.22140929  0.84408822  0.12437042  1.0
  Na  Na1  1  0.15591171  0.77859092  0.37562960  1.0
  Na  Na2  1  0.77859084  0.15591174  0.87562955  1.0
  Na  Na3  1  0.84408826  0.22140920  0.62437041  1.0
  Na  Na4  1  0.65765011  0.78284216  0.36749643  1.0
  Na  Na5  1  0.21715780  0.34234988  0.13250362  1.0
  Na  Na6  1  0.34234988  0.21715783  0.63250357  1.0
  Na  Na7  1  0.78284219  0.65765010  0.86749636  1.0
  Li  Li8  1  0.71607421  0.09060629  0.13868544  1.0
  Li  Li9  1  0.90939367  0.28392581  0.36131459  1.0
  Li  Li10  1  0.28392579  0.90939368  0.86131454  1.0
  Li  Li11  1  0.09060632  0.71607420  0.63868543  1.0
  Li  Li12  1  0.41088357  0.28417356  0.36093587  1.0
  Li  Li13  1  0.71582645  0.58911639  0.13906420  1.0
  Li  Li14  1  0.58911638  0.71582644  0.63906420  1.0
  Li  Li15  1  0.28417356  0.41088356  0.86093579  1.0
  Br  Br16  1  0.94641537  0.05358466  0.24999997  1.0
  Br  Br17  1  0.05358462  0.94641535  0.75000003  1.0
  Br  Br18  1  0.42930670  0.57069334  0.24999996  1.0
  Br  Br19  1  0.57069330  0.42930665  0.75000005  1.0
  Br  Br20  1  0.74245026  0.86620276  0.02759049  1.0
  Br  Br21  1  0.13379722  0.25754973  0.47240947  1.0
  Br  Br22  1  0.25754971  0.13379723  0.97240953  1.0
  Br  Br23  1  0.86620279  0.74245027  0.52759049  1.0
  Br  Br24  1  0.42973589  0.05345863  0.25006678  1.0
  Br  Br25  1  0.94654140  0.57026417  0.24993316  1.0
  Br  Br26  1  0.57026410  0.94654139  0.74993322  1.0
  Br  Br27  1  0.05345862  0.42973583  0.75006685  1.0
  Br  Br28  1  0.63106335  0.25734492  0.47174969  1.0
  Br  Br29  1  0.74265515  0.36893665  0.02825027  1.0
  Br  Br30  1  0.36893664  0.74265512  0.52825027  1.0
  Br  Br31  1  0.25734487  0.63106333  0.97174974  1.0
