# generated using pymatgen
data_NaNbCl4
_symmetry_space_group_name_H-M   'P 1'
_cell_length_a   7.55154516
_cell_length_b   6.29669811
_cell_length_c   6.52444101
_cell_angle_alpha   86.94347607
_cell_angle_beta   90.00086683
_cell_angle_gamma   90.00042518
_symmetry_Int_Tables_number   1
_chemical_formula_structural   NaNbCl4
_chemical_formula_sum   'Na2 Nb2 Cl8'
_cell_volume   309.79452999
_cell_formula_units_Z   2
loop_
 _symmetry_equiv_pos_site_id
 _symmetry_equiv_pos_as_xyz
  1  'x, y, z'
loop_
 _atom_site_type_symbol
 _atom_site_label
 _atom_site_symmetry_multiplicity
 _atom_site_fract_x
 _atom_site_fract_y
 _atom_site_fract_z
 _atom_site_occupancy
  Na  Na0  1  0.12727673  0.00000019  0.75000028  1.0
  Na  Na1  1  0.87272181  0.99999983  0.24999980  1.0
  Nb  Nb2  1  0.62536591  0.50000074  0.74999502  1.0
  Nb  Nb3  1  0.37463494  0.49999920  0.25000534  1.0
  Cl  Cl4  1  0.85249233  0.25956334  0.90003489  1.0
  Cl  Cl5  1  0.38718674  0.27862101  0.93630697  1.0
  Cl  Cl6  1  0.38718505  0.72138372  0.56369529  1.0
  Cl  Cl7  1  0.85249260  0.74043818  0.59996453  1.0
  Cl  Cl8  1  0.14750823  0.25956180  0.40003404  1.0
  Cl  Cl9  1  0.61281458  0.27861571  0.43630376  1.0
  Cl  Cl10  1  0.61281280  0.72137953  0.06369367  1.0
  Cl  Cl11  1  0.14750829  0.74043675  0.09996642  1.0
