# generated using pymatgen
data_NaNdH4
_symmetry_space_group_name_H-M   'P 1'
_cell_length_a   5.53650700
_cell_length_b   5.54030612
_cell_length_c   5.54843732
_cell_angle_alpha   90.00000083
_cell_angle_beta   90.00000125
_cell_angle_gamma   88.73118904
_symmetry_Int_Tables_number   1
_chemical_formula_structural   NaNdH4
_chemical_formula_sum   'Na2 Nd2 H8'
_cell_volume   170.15072420
_cell_formula_units_Z   2
loop_
 _symmetry_equiv_pos_site_id
 _symmetry_equiv_pos_as_xyz
  1  'x, y, z'
loop_
 _atom_site_type_symbol
 _atom_site_label
 _atom_site_symmetry_multiplicity
 _atom_site_fract_x
 _atom_site_fract_y
 _atom_site_fract_z
 _atom_site_occupancy
  Na  Na0  1  0.50000000  0.25000000  0.26048215  1.0
  Na  Na1  1  0.50000000  0.75000000  0.73951753  1.0
  Nd  Nd2  1  0.00000000  0.25000000  0.74968888  1.0
  Nd  Nd3  1  0.00000000  0.75000000  0.25031077  1.0
  H  H4  1  0.22328515  0.53846295  0.54529473  1.0
  H  H5  1  0.77671485  0.96153705  0.54529472  1.0
  H  H6  1  0.78593536  0.05528114  0.05068335  1.0
  H  H7  1  0.21406464  0.44471885  0.05068337  1.0
  H  H8  1  0.21406465  0.94471886  0.94931632  1.0
  H  H9  1  0.78593535  0.55528115  0.94931630  1.0
  H  H10  1  0.22328516  0.03846293  0.45470494  1.0
  H  H11  1  0.77671484  0.46153707  0.45470493  1.0
