# generated using pymatgen
data_NaNdI4
_symmetry_space_group_name_H-M   'P 1'
_cell_length_a   8.08117597
_cell_length_b   7.67422668
_cell_length_c   7.79068235
_cell_angle_alpha   90.00000007
_cell_angle_beta   90.00000007
_cell_angle_gamma   99.81839180
_symmetry_Int_Tables_number   1
_chemical_formula_structural   NaNdI4
_chemical_formula_sum   'Na2 Nd2 I8'
_cell_volume   476.07636386
_cell_formula_units_Z   2
loop_
 _symmetry_equiv_pos_site_id
 _symmetry_equiv_pos_as_xyz
  1  'x, y, z'
loop_
 _atom_site_type_symbol
 _atom_site_label
 _atom_site_symmetry_multiplicity
 _atom_site_fract_x
 _atom_site_fract_y
 _atom_site_fract_z
 _atom_site_occupancy
  Na  Na0  1  0.50000000  0.25000000  0.66734008  1.0
  Na  Na1  1  0.50000000  0.75000000  0.33265992  1.0
  Nd  Nd2  1  0.00000000  0.75000000  0.75864942  1.0
  Nd  Nd3  1  0.00000000  0.25000000  0.24135057  1.0
  I  I4  1  0.77593610  0.01397589  0.56773048  1.0
  I  I5  1  0.22406390  0.48602412  0.56773048  1.0
  I  I6  1  0.22406390  0.98602412  0.43226952  1.0
  I  I7  1  0.77593610  0.51397588  0.43226952  1.0
  I  I8  1  0.22137177  0.59143173  0.06705349  1.0
  I  I9  1  0.77862823  0.90856827  0.06705349  1.0
  I  I10  1  0.77862823  0.40856827  0.93294651  1.0
  I  I11  1  0.22137177  0.09143173  0.93294651  1.0
