# generated using pymatgen
data_NaReO2
_symmetry_space_group_name_H-M   'P 1'
_cell_length_a   2.82768876
_cell_length_b   2.82768750
_cell_length_c   6.13492212
_cell_angle_alpha   90.00000074
_cell_angle_beta   90.00001966
_cell_angle_gamma   120.00005794
_symmetry_Int_Tables_number   1
_chemical_formula_structural   NaReO2
_chemical_formula_sum   'Na1 Re1 O2'
_cell_volume   42.48175497
_cell_formula_units_Z   1
loop_
 _symmetry_equiv_pos_site_id
 _symmetry_equiv_pos_as_xyz
  1  'x, y, z'
loop_
 _atom_site_type_symbol
 _atom_site_label
 _atom_site_symmetry_multiplicity
 _atom_site_fract_x
 _atom_site_fract_y
 _atom_site_fract_z
 _atom_site_occupancy
  Na  Na0  1  0.00000004  0.00000003  0.99999999  1.0
  Re  Re1  1  0.99999998  0.99999998  0.50000000  1.0
  O  O2  1  0.33333333  0.66666667  0.72880718  1.0
  O  O3  1  0.66666667  0.33333333  0.27119283  1.0
