# generated using pymatgen
data_NaRuF4
_symmetry_space_group_name_H-M   'P 1'
_cell_length_a   5.34063680
_cell_length_b   5.54793364
_cell_length_c   6.17962019
_cell_angle_alpha   89.99995842
_cell_angle_beta   89.99998043
_cell_angle_gamma   91.11366618
_symmetry_Int_Tables_number   1
_chemical_formula_structural   NaRuF4
_chemical_formula_sum   'Na2 Ru2 F8'
_cell_volume   183.06446098
_cell_formula_units_Z   2
loop_
 _symmetry_equiv_pos_site_id
 _symmetry_equiv_pos_as_xyz
  1  'x, y, z'
loop_
 _atom_site_type_symbol
 _atom_site_label
 _atom_site_symmetry_multiplicity
 _atom_site_fract_x
 _atom_site_fract_y
 _atom_site_fract_z
 _atom_site_occupancy
  Na  Na0  1  0.49999995  0.24999994  0.32921336  1.0
  Na  Na1  1  0.50000007  0.75000010  0.67078634  1.0
  Ru  Ru2  1  0.00000020  0.24999967  0.82039823  1.0
  Ru  Ru3  1  0.99999966  0.75000041  0.17960192  1.0
  F  F4  1  0.26001244  0.40191893  0.61882094  1.0
  F  F5  1  0.73998765  0.09808109  0.61882085  1.0
  F  F6  1  0.78940965  0.06767068  0.10072082  1.0
  F  F7  1  0.21059059  0.43232901  0.10072102  1.0
  F  F8  1  0.21059052  0.93232870  0.89927921  1.0
  F  F9  1  0.78940931  0.56767148  0.89927905  1.0
  F  F10  1  0.26001157  0.90191844  0.38117817  1.0
  F  F11  1  0.73998838  0.59808155  0.38117810  1.0
