# generated using pymatgen
data_NaScI4
_symmetry_space_group_name_H-M   'P 1'
_cell_length_a   7.29652717
_cell_length_b   7.50734552
_cell_length_c   8.71995250
_cell_angle_alpha   89.99999617
_cell_angle_beta   89.99999804
_cell_angle_gamma   93.41377022
_symmetry_Int_Tables_number   1
_chemical_formula_structural   NaScI4
_chemical_formula_sum   'Na2 Sc2 I8'
_cell_volume   476.81005729
_cell_formula_units_Z   2
loop_
 _symmetry_equiv_pos_site_id
 _symmetry_equiv_pos_as_xyz
  1  'x, y, z'
loop_
 _atom_site_type_symbol
 _atom_site_label
 _atom_site_symmetry_multiplicity
 _atom_site_fract_x
 _atom_site_fract_y
 _atom_site_fract_z
 _atom_site_occupancy
  Na  Na0  1  0.50000006  0.25000000  0.35217097  1.0
  Na  Na1  1  0.50000002  0.74999990  0.64782877  1.0
  Sc  Sc2  1  0.99999992  0.25000008  0.85755859  1.0
  Sc  Sc3  1  0.00000008  0.74999995  0.14244124  1.0
  I  I4  1  0.24153479  0.39760147  0.63261325  1.0
  I  I5  1  0.75846519  0.10239853  0.63261334  1.0
  I  I6  1  0.77993741  0.06033693  0.10418330  1.0
  I  I7  1  0.22006256  0.43966299  0.10418317  1.0
  I  I8  1  0.22006266  0.93966308  0.89581637  1.0
  I  I9  1  0.77993735  0.56033705  0.89581651  1.0
  I  I10  1  0.24153487  0.89760127  0.36738625  1.0
  I  I11  1  0.75846509  0.60239875  0.36738624  1.0
