# generated using pymatgen
data_NaSmH4
_symmetry_space_group_name_H-M   'P 1'
_cell_length_a   5.53521790
_cell_length_b   5.44092554
_cell_length_c   5.43861934
_cell_angle_alpha   89.99999702
_cell_angle_beta   90.00018397
_cell_angle_gamma   89.00255155
_symmetry_Int_Tables_number   1
_chemical_formula_structural   NaSmH4
_chemical_formula_sum   'Na2 Sm2 H8'
_cell_volume   163.76849361
_cell_formula_units_Z   2
loop_
 _symmetry_equiv_pos_site_id
 _symmetry_equiv_pos_as_xyz
  1  'x, y, z'
loop_
 _atom_site_type_symbol
 _atom_site_label
 _atom_site_symmetry_multiplicity
 _atom_site_fract_x
 _atom_site_fract_y
 _atom_site_fract_z
 _atom_site_occupancy
  Na  Na0  1  0.50000007  0.24999951  0.25894052  1.0
  Na  Na1  1  0.49999993  0.75000048  0.74105918  1.0
  Sm  Sm2  1  0.00000022  0.24999525  0.75073128  1.0
  Sm  Sm3  1  0.99999976  0.75000475  0.24926847  1.0
  H  H4  1  0.21874548  0.53841830  0.54284531  1.0
  H  H5  1  0.78125530  0.96158232  0.54284577  1.0
  H  H6  1  0.78583971  0.05161349  0.04888454  1.0
  H  H7  1  0.21416117  0.44838571  0.04888387  1.0
  H  H8  1  0.21416029  0.94838663  0.95111496  1.0
  H  H9  1  0.78583882  0.55161417  0.95111564  1.0
  H  H10  1  0.21874473  0.03841779  0.45715400  1.0
  H  H11  1  0.78125450  0.46158160  0.45715446  1.0
