# generated using pymatgen
data_NaTbS2
_symmetry_space_group_name_H-M   'P 1'
_cell_length_a   7.94404585
_cell_length_b   7.94396780
_cell_length_c   14.33853208
_cell_angle_alpha   82.12392326
_cell_angle_beta   82.12272022
_cell_angle_gamma   89.98618951
_symmetry_Int_Tables_number   1
_chemical_formula_structural   NaTbS2
_chemical_formula_sum   'Na8 Tb8 S16'
_cell_volume   887.71308363
_cell_formula_units_Z   8
loop_
 _symmetry_equiv_pos_site_id
 _symmetry_equiv_pos_as_xyz
  1  'x, y, z'
loop_
 _atom_site_type_symbol
 _atom_site_label
 _atom_site_symmetry_multiplicity
 _atom_site_fract_x
 _atom_site_fract_y
 _atom_site_fract_z
 _atom_site_occupancy
  Na  Na0  1  0.21788789  0.84139534  0.13578168  1.0
  Na  Na1  1  0.15860623  0.78211267  0.36421847  1.0
  Na  Na2  1  0.78211229  0.15860470  0.86421840  1.0
  Na  Na3  1  0.84139363  0.21788732  0.63578170  1.0
  Na  Na4  1  0.65742893  0.78413351  0.36368123  1.0
  Na  Na5  1  0.21586510  0.34257292  0.13631811  1.0
  Na  Na6  1  0.34257182  0.21586596  0.63631844  1.0
  Na  Na7  1  0.78413354  0.65742898  0.86368114  1.0
  Tb  Tb8  1  0.71786906  0.09212172  0.13203331  1.0
  Tb  Tb9  1  0.90787410  0.28212796  0.36796127  1.0
  Tb  Tb10  1  0.28213089  0.90787812  0.86796678  1.0
  Tb  Tb11  1  0.09212589  0.71787189  0.63203881  1.0
  Tb  Tb12  1  0.40899486  0.28227636  0.36811938  1.0
  Tb  Tb13  1  0.71772139  0.59100266  0.13187404  1.0
  Tb  Tb14  1  0.59100507  0.71772350  0.63188060  1.0
  Tb  Tb15  1  0.28227857  0.40899709  0.86812597  1.0
  S  S16  1  0.94578260  0.05422038  0.25000260  1.0
  S  S17  1  0.05421754  0.94577968  0.74999739  1.0
  S  S18  1  0.43122900  0.56876990  0.25000121  1.0
  S  S19  1  0.56877118  0.43123016  0.74999897  1.0
  S  S20  1  0.74588860  0.87058861  0.01511101  1.0
  S  S21  1  0.12941386  0.25411174  0.48489210  1.0
  S  S22  1  0.25411145  0.12941118  0.98488906  1.0
  S  S23  1  0.87058610  0.74588813  0.51510798  1.0
  S  S24  1  0.43169890  0.05410576  0.25012244  1.0
  S  S25  1  0.94589719  0.56829972  0.24988141  1.0
  S  S26  1  0.56830127  0.94589397  0.74987772  1.0
  S  S27  1  0.05410278  0.43170023  0.75011868  1.0
  S  S28  1  0.62941564  0.25380904  0.48579788  1.0
  S  S29  1  0.74619197  0.37058956  0.01420410  1.0
  S  S30  1  0.37058432  0.74619092  0.51420219  1.0
  S  S31  1  0.25380835  0.62941031  0.98579593  1.0
