# generated using pymatgen
data_NaTbH4
_symmetry_space_group_name_H-M   'P 1'
_cell_length_a   5.46851695
_cell_length_b   5.31478390
_cell_length_c   5.30721605
_cell_angle_alpha   90.00000151
_cell_angle_beta   89.99999784
_cell_angle_gamma   88.46892582
_symmetry_Int_Tables_number   1
_chemical_formula_structural   NaTbH4
_chemical_formula_sum   'Na2 Tb2 H8'
_cell_volume   154.19378237
_cell_formula_units_Z   2
loop_
 _symmetry_equiv_pos_site_id
 _symmetry_equiv_pos_as_xyz
  1  'x, y, z'
loop_
 _atom_site_type_symbol
 _atom_site_label
 _atom_site_symmetry_multiplicity
 _atom_site_fract_x
 _atom_site_fract_y
 _atom_site_fract_z
 _atom_site_occupancy
  Na  Na0  1  0.49999999  0.24999998  0.25815781  1.0
  Na  Na1  1  0.50000001  0.75000000  0.74184193  1.0
  Tb  Tb2  1  0.00000000  0.25000016  0.74982042  1.0
  Tb  Tb3  1  0.00000000  0.74999983  0.25017925  1.0
  H  H4  1  0.21696377  0.53573946  0.54365688  1.0
  H  H5  1  0.78303618  0.96426052  0.54365683  1.0
  H  H6  1  0.78777102  0.05295253  0.04576713  1.0
  H  H7  1  0.21222894  0.44704749  0.04576719  1.0
  H  H8  1  0.21222898  0.94704744  0.95423254  1.0
  H  H9  1  0.78777109  0.55295254  0.95423245  1.0
  H  H10  1  0.21696375  0.03573951  0.45634280  1.0
  H  H11  1  0.78303628  0.46426052  0.45634276  1.0
