# generated using pymatgen
data_NaTmI4
_symmetry_space_group_name_H-M   'P 1'
_cell_length_a   7.35850145
_cell_length_b   7.73646632
_cell_length_c   8.90496538
_cell_angle_alpha   89.99999681
_cell_angle_beta   89.99999621
_cell_angle_gamma   94.16937867
_symmetry_Int_Tables_number   1
_chemical_formula_structural   NaTmI4
_chemical_formula_sum   'Na2 Tm2 I8'
_cell_volume   505.60732853
_cell_formula_units_Z   2
loop_
 _symmetry_equiv_pos_site_id
 _symmetry_equiv_pos_as_xyz
  1  'x, y, z'
loop_
 _atom_site_type_symbol
 _atom_site_label
 _atom_site_symmetry_multiplicity
 _atom_site_fract_x
 _atom_site_fract_y
 _atom_site_fract_z
 _atom_site_occupancy
  Na  Na0  1  0.99999996  0.74999999  0.86187445  1.0
  Na  Na1  1  0.00000003  0.24999998  0.13812598  1.0
  Tm  Tm2  1  0.50000008  0.75000001  0.35876526  1.0
  Tm  Tm3  1  0.49999994  0.24999999  0.64123484  1.0
  I  I4  1  0.74942605  0.40394798  0.86952931  1.0
  I  I5  1  0.25057410  0.59605195  0.13047065  1.0
  I  I6  1  0.25057390  0.09605199  0.86952933  1.0
  I  I7  1  0.74942594  0.90394813  0.13047053  1.0
  I  I8  1  0.72737897  0.94080559  0.60661967  1.0
  I  I9  1  0.27262111  0.05919440  0.39338017  1.0
  I  I10  1  0.27262098  0.55919439  0.60661961  1.0
  I  I11  1  0.72737894  0.44080560  0.39338021  1.0
