# generated using pymatgen
data_NaTmH4
_symmetry_space_group_name_H-M   'P 1'
_cell_length_a   7.81540522
_cell_length_b   7.81536519
_cell_length_c   5.06819600
_cell_angle_alpha   90.00332018
_cell_angle_beta   89.99605859
_cell_angle_gamma   156.39908099
_symmetry_Int_Tables_number   1
_chemical_formula_structural   NaTmH4
_chemical_formula_sum   'Na2 Tm2 H8'
_cell_volume   123.93926179
_cell_formula_units_Z   2
loop_
 _symmetry_equiv_pos_site_id
 _symmetry_equiv_pos_as_xyz
  1  'x, y, z'
loop_
 _atom_site_type_symbol
 _atom_site_label
 _atom_site_symmetry_multiplicity
 _atom_site_fract_x
 _atom_site_fract_y
 _atom_site_fract_z
 _atom_site_occupancy
  Na  Na0  1  0.29433816  0.70566404  0.75000050  1.0
  Na  Na1  1  0.70566444  0.29433327  0.24999935  1.0
  Tm  Tm2  1  0.57161766  0.42838206  0.75000244  1.0
  Tm  Tm3  1  0.42838580  0.57161448  0.24999706  1.0
  H  H4  1  0.84352139  0.15647219  0.03930099  1.0
  H  H5  1  0.15647591  0.84353045  0.96069966  1.0
  H  H6  1  0.84352795  0.15647917  0.46069745  1.0
  H  H7  1  0.15646938  0.84352347  0.53930165  1.0
  H  H8  1  0.43805158  0.56194818  0.75000714  1.0
  H  H9  1  0.56194970  0.43805065  0.24999377  1.0
  H  H10  1  0.99999904  0.00000098  0.00000707  1.0
  H  H11  1  0.99999898  0.00000106  0.49999290  1.0
