# generated using pymatgen
data_NaVF4
_symmetry_space_group_name_H-M   'P 1'
_cell_length_a   5.08175045
_cell_length_b   5.43830737
_cell_length_c   5.97454328
_cell_angle_alpha   89.99984150
_cell_angle_beta   89.99973277
_cell_angle_gamma   92.61319167
_symmetry_Int_Tables_number   1
_chemical_formula_structural   NaVF4
_chemical_formula_sum   'Na2 V2 F8'
_cell_volume   164.94149918
_cell_formula_units_Z   2
loop_
 _symmetry_equiv_pos_site_id
 _symmetry_equiv_pos_as_xyz
  1  'x, y, z'
loop_
 _atom_site_type_symbol
 _atom_site_label
 _atom_site_symmetry_multiplicity
 _atom_site_fract_x
 _atom_site_fract_y
 _atom_site_fract_z
 _atom_site_occupancy
  Na  Na0  1  0.49999840  0.25000302  0.34905789  1.0
  Na  Na1  1  0.49999954  0.75000228  0.65094180  1.0
  V  V2  1  0.00000077  0.25000532  0.85670871  1.0
  V  V3  1  0.99999478  0.75000130  0.14329091  1.0
  F  F4  1  0.24791807  0.39046643  0.64989063  1.0
  F  F5  1  0.75208236  0.10953036  0.64988236  1.0
  F  F6  1  0.80346272  0.07163078  0.10925268  1.0
  F  F7  1  0.19653679  0.42836474  0.10925352  1.0
  F  F8  1  0.19653679  0.92836499  0.89074445  1.0
  F  F9  1  0.80346274  0.57163108  0.89074872  1.0
  F  F10  1  0.24792132  0.89046790  0.35010982  1.0
  F  F11  1  0.75208574  0.60953179  0.35011651  1.0
