# generated using pymatgen
data_NaYO2
_symmetry_space_group_name_H-M   'P 1'
_cell_length_a   6.41863826
_cell_length_b   6.50262022
_cell_length_c   6.41656657
_cell_angle_alpha   117.11376663
_cell_angle_beta   149.39582903
_cell_angle_gamma   53.60073683
_symmetry_Int_Tables_number   1
_chemical_formula_structural   NaYO2
_chemical_formula_sum   'Na2 Y2 O4'
_cell_volume   108.75195698
_cell_formula_units_Z   2
loop_
 _symmetry_equiv_pos_site_id
 _symmetry_equiv_pos_as_xyz
  1  'x, y, z'
loop_
 _atom_site_type_symbol
 _atom_site_label
 _atom_site_symmetry_multiplicity
 _atom_site_fract_x
 _atom_site_fract_y
 _atom_site_fract_z
 _atom_site_occupancy
  Na  Na0  1  0.99670858  0.24999949  0.74686387  1.0
  Na  Na1  1  0.00280611  0.74982939  0.25276895  1.0
  Y  Y2  1  0.99997732  0.50001025  0.49997285  1.0
  Y  Y3  1  0.00031585  0.99993306  0.00024270  1.0
  O  O4  1  0.66788727  0.43812513  0.89196013  1.0
  O  O5  1  0.33060220  0.06200972  0.60665646  1.0
  O  O6  1  0.66964581  0.93810826  0.39356633  1.0
  O  O7  1  0.33205687  0.56198469  0.10796870  1.0
