# generated using pymatgen
data_NaYO2
_symmetry_space_group_name_H-M   'P 1'
_cell_length_a   3.49029276
_cell_length_b   5.95439897
_cell_length_c   6.42617409
_cell_angle_alpha   95.66553583
_cell_angle_beta   89.99998225
_cell_angle_gamma   89.99998157
_symmetry_Int_Tables_number   1
_chemical_formula_structural   NaYO2
_chemical_formula_sum   'Na2 Y2 O4'
_cell_volume   132.90019076
_cell_formula_units_Z   2
loop_
 _symmetry_equiv_pos_site_id
 _symmetry_equiv_pos_as_xyz
  1  'x, y, z'
loop_
 _atom_site_type_symbol
 _atom_site_label
 _atom_site_symmetry_multiplicity
 _atom_site_fract_x
 _atom_site_fract_y
 _atom_site_fract_z
 _atom_site_occupancy
  Na  Na0  1  0.00000000  0.99999999  0.00000001  1.0
  Na  Na1  1  0.50000002  0.00000002  0.50000004  1.0
  Y  Y2  1  0.50000021  0.57944544  0.77153737  1.0
  Y  Y3  1  0.49999978  0.42055458  0.22846259  1.0
  O  O4  1  0.99999979  0.26524757  0.35605239  1.0
  O  O5  1  0.49999996  0.26692823  0.91596824  1.0
  O  O6  1  0.50000003  0.73307174  0.08403174  1.0
  O  O7  1  0.00000021  0.73475243  0.64394761  1.0
