# generated using pymatgen
data_NaYS2
_symmetry_space_group_name_H-M   'P 1'
_cell_length_a   4.11094271
_cell_length_b   7.10524771
_cell_length_c   7.31599333
_cell_angle_alpha   99.12183592
_cell_angle_beta   90.00005279
_cell_angle_gamma   90.00011706
_symmetry_Int_Tables_number   1
_chemical_formula_structural   NaYS2
_chemical_formula_sum   'Na2 Y2 S4'
_cell_volume   210.99229737
_cell_formula_units_Z   2
loop_
 _symmetry_equiv_pos_site_id
 _symmetry_equiv_pos_as_xyz
  1  'x, y, z'
loop_
 _atom_site_type_symbol
 _atom_site_label
 _atom_site_symmetry_multiplicity
 _atom_site_fract_x
 _atom_site_fract_y
 _atom_site_fract_z
 _atom_site_occupancy
  Na  Na0  1  0.99999988  0.99999993  0.00000001  1.0
  Na  Na1  1  0.49999975  0.00000008  0.50000011  1.0
  Y  Y2  1  0.49999902  0.58471549  0.77812140  1.0
  Y  Y3  1  0.50000105  0.41528445  0.22187854  1.0
  S  S4  1  0.00000100  0.25633963  0.36178067  1.0
  S  S5  1  0.49999946  0.24927730  0.88147171  1.0
  S  S6  1  0.50000029  0.75072264  0.11852812  1.0
  S  S7  1  0.99999954  0.74366048  0.63821944  1.0
