# generated using pymatgen
data_NdCl2F
_symmetry_space_group_name_H-M   'P 1'
_cell_length_a   4.75178722
_cell_length_b   4.75178707
_cell_length_c   4.75178737
_cell_angle_alpha   59.99999354
_cell_angle_beta   59.99999176
_cell_angle_gamma   60.00000081
_symmetry_Int_Tables_number   1
_chemical_formula_structural   NdCl2F
_chemical_formula_sum   'Nd1 Cl2 F1'
_cell_volume   75.86752423
_cell_formula_units_Z   1
loop_
 _symmetry_equiv_pos_site_id
 _symmetry_equiv_pos_as_xyz
  1  'x, y, z'
loop_
 _atom_site_type_symbol
 _atom_site_label
 _atom_site_symmetry_multiplicity
 _atom_site_fract_x
 _atom_site_fract_y
 _atom_site_fract_z
 _atom_site_occupancy
  Nd  Nd0  1  0.50000000  0.49999999  0.50000000  1.0
  Cl  Cl1  1  0.24999997  0.25000002  0.25000001  1.0
  Cl  Cl2  1  0.75000003  0.74999999  0.74999998  1.0
  F  F3  1  0.00000000  0.00000000  0.00000001  1.0
