# generated using pymatgen
data_NdH4Au
_symmetry_space_group_name_H-M   'P 1'
_cell_length_a   6.83262064
_cell_length_b   6.83262135
_cell_length_c   6.52327190
_cell_angle_alpha   90.00000556
_cell_angle_beta   89.99999518
_cell_angle_gamma   120.00000916
_symmetry_Int_Tables_number   1
_chemical_formula_structural   NdH4Au
_chemical_formula_sum   'Nd3 H12 Au3'
_cell_volume   263.73680141
_cell_formula_units_Z   3
loop_
 _symmetry_equiv_pos_site_id
 _symmetry_equiv_pos_as_xyz
  1  'x, y, z'
loop_
 _atom_site_type_symbol
 _atom_site_label
 _atom_site_symmetry_multiplicity
 _atom_site_fract_x
 _atom_site_fract_y
 _atom_site_fract_z
 _atom_site_occupancy
  Nd  Nd0  1  0.00000001  0.49999998  0.66666667  1.0
  Nd  Nd1  1  0.50000006  0.50000007  0.33333333  1.0
  Nd  Nd2  1  0.49999995  0.00000000  0.99999989  1.0
  H  H3  1  0.40813387  0.29183329  0.02896204  1.0
  H  H4  1  0.70816650  0.11630063  0.69562860  1.0
  H  H5  1  0.88369944  0.59186624  0.36229543  1.0
  H  H6  1  0.11630061  0.40813374  0.36229538  1.0
  H  H7  1  0.59186623  0.88369948  0.30437121  1.0
  H  H8  1  0.59186615  0.70816679  0.02896203  1.0
  H  H9  1  0.40813370  0.11630059  0.30437124  1.0
  H  H10  1  0.29183339  0.40813397  0.63770475  1.0
  H  H11  1  0.11630068  0.70816651  0.97103805  1.0
  H  H12  1  0.88369942  0.29183332  0.97103803  1.0
  H  H13  1  0.70816671  0.59186617  0.63770469  1.0
  H  H14  1  0.29183338  0.88369938  0.69562866  1.0
  Au  Au15  1  0.99999989  0.49999984  0.16666632  1.0
  Au  Au16  1  0.50000005  0.50000001  0.83333312  1.0
  Au  Au17  1  0.49999996  0.99999999  0.50000037  1.0
