# generated using pymatgen
data_NdSI
_symmetry_space_group_name_H-M   'P 1'
_cell_length_a   5.12836827
_cell_length_b   5.12836958
_cell_length_c   5.12836815
_cell_angle_alpha   60.00002206
_cell_angle_beta   60.00002445
_cell_angle_gamma   60.00003672
_symmetry_Int_Tables_number   1
_chemical_formula_structural   NdSI
_chemical_formula_sum   'Nd1 S1 I1'
_cell_volume   95.37246104
_cell_formula_units_Z   1
loop_
 _symmetry_equiv_pos_site_id
 _symmetry_equiv_pos_as_xyz
  1  'x, y, z'
loop_
 _atom_site_type_symbol
 _atom_site_label
 _atom_site_symmetry_multiplicity
 _atom_site_fract_x
 _atom_site_fract_y
 _atom_site_fract_z
 _atom_site_occupancy
  Nd  Nd0  1  0.00000001  0.99999997  0.99999996  1.0
  S  S1  1  0.75000000  0.75000003  0.75000001  1.0
  I  I2  1  0.24999999  0.25000000  0.25000002  1.0
