# generated using pymatgen
data_NiSnF4
_symmetry_space_group_name_H-M   'P 1'
_cell_length_a   5.14540099
_cell_length_b   5.50097227
_cell_length_c   6.16096110
_cell_angle_alpha   89.99998440
_cell_angle_beta   89.99993457
_cell_angle_gamma   92.77271548
_symmetry_Int_Tables_number   1
_chemical_formula_structural   NiSnF4
_chemical_formula_sum   'Ni2 Sn2 F8'
_cell_volume   174.18005202
_cell_formula_units_Z   2
loop_
 _symmetry_equiv_pos_site_id
 _symmetry_equiv_pos_as_xyz
  1  'x, y, z'
loop_
 _atom_site_type_symbol
 _atom_site_label
 _atom_site_symmetry_multiplicity
 _atom_site_fract_x
 _atom_site_fract_y
 _atom_site_fract_z
 _atom_site_occupancy
  Ni  Ni0  1  0.50000176  0.25000101  0.64139486  1.0
  Ni  Ni1  1  0.49999819  0.74999897  0.35860547  1.0
  Sn  Sn2  1  0.99999970  0.24999902  0.18335940  1.0
  Sn  Sn3  1  0.00000037  0.75000103  0.81664089  1.0
  F  F4  1  0.70927420  0.94806846  0.58951918  1.0
  F  F5  1  0.29072200  0.55192886  0.58951548  1.0
  F  F6  1  0.29072562  0.05193143  0.41048136  1.0
  F  F7  1  0.70927788  0.44807110  0.41048469  1.0
  F  F8  1  0.74182547  0.88475008  0.12888445  1.0
  F  F9  1  0.25816874  0.61524011  0.12888708  1.0
  F  F10  1  0.25817466  0.11525001  0.87111609  1.0
  F  F11  1  0.74183142  0.38475991  0.87111303  1.0
