# generated using pymatgen
data_P2RuS
_symmetry_space_group_name_H-M   'P 1'
_cell_length_a   3.75887064
_cell_length_b   3.75849599
_cell_length_c   12.68987902
_cell_angle_alpha   98.05270246
_cell_angle_beta   81.96464873
_cell_angle_gamma   131.63531227
_symmetry_Int_Tables_number   1
_chemical_formula_structural   P2RuS
_chemical_formula_sum   'P4 Ru2 S2'
_cell_volume   132.40516762
_cell_formula_units_Z   2
loop_
 _symmetry_equiv_pos_site_id
 _symmetry_equiv_pos_as_xyz
  1  'x, y, z'
loop_
 _atom_site_type_symbol
 _atom_site_label
 _atom_site_symmetry_multiplicity
 _atom_site_fract_x
 _atom_site_fract_y
 _atom_site_fract_z
 _atom_site_occupancy
  P  P0  1  0.33413132  0.66579671  0.95144848  1.0
  P  P1  1  0.66586067  0.33421152  0.04855863  1.0
  P  P2  1  0.23675778  0.76432519  0.79095984  1.0
  P  P3  1  0.76326177  0.23566491  0.20903347  1.0
  Ru  Ru4  1  0.03400543  0.96582362  0.30329005  1.0
  Ru  Ru5  1  0.96599493  0.03417277  0.69671105  1.0
  S  S6  1  0.69419096  0.30549006  0.59357243  1.0
  S  S7  1  0.30579715  0.69451522  0.40642605  1.0
