# generated using pymatgen
data_PbSF2
_symmetry_space_group_name_H-M   'P 1'
_cell_length_a   4.37157115
_cell_length_b   7.77262057
_cell_length_c   6.58663478
_cell_angle_alpha   47.06774760
_cell_angle_beta   89.99928996
_cell_angle_gamma   90.00022633
_symmetry_Int_Tables_number   1
_chemical_formula_structural   PbSF2
_chemical_formula_sum   'Pb2 S2 F4'
_cell_volume   163.86053241
_cell_formula_units_Z   2
loop_
 _symmetry_equiv_pos_site_id
 _symmetry_equiv_pos_as_xyz
  1  'x, y, z'
loop_
 _atom_site_type_symbol
 _atom_site_label
 _atom_site_symmetry_multiplicity
 _atom_site_fract_x
 _atom_site_fract_y
 _atom_site_fract_z
 _atom_site_occupancy
  Pb  Pb0  1  0.50000005  0.50000029  0.00000006  1.0
  Pb  Pb1  1  0.00000004  0.99999912  0.00000063  1.0
  S  S2  1  0.50000019  0.99999983  0.50000007  1.0
  S  S3  1  0.99999982  0.50000003  0.50000042  1.0
  F  F4  1  0.00000015  0.57096514  0.14543759  1.0
  F  F5  1  0.99999972  0.42903631  0.85456020  1.0
  F  F6  1  0.50000090  0.07065995  0.14545483  1.0
  F  F7  1  0.49999913  0.92933932  0.85454621  1.0
