# generated using pymatgen
data_PO2F
_symmetry_space_group_name_H-M   'P 1'
_cell_length_a   4.28534012
_cell_length_b   4.28534233
_cell_length_c   4.63091308
_cell_angle_alpha   77.43986355
_cell_angle_beta   77.43854670
_cell_angle_gamma   61.27897702
_symmetry_Int_Tables_number   1
_chemical_formula_structural   PO2F
_chemical_formula_sum   'P2 O4 F2'
_cell_volume   72.15820533
_cell_formula_units_Z   2
loop_
 _symmetry_equiv_pos_site_id
 _symmetry_equiv_pos_as_xyz
  1  'x, y, z'
loop_
 _atom_site_type_symbol
 _atom_site_label
 _atom_site_symmetry_multiplicity
 _atom_site_fract_x
 _atom_site_fract_y
 _atom_site_fract_z
 _atom_site_occupancy
  P  P0  1  0.39060951  0.60939723  0.75001883  1.0
  P  P1  1  0.60939434  0.39059817  0.24998902  1.0
  O  O2  1  0.37914500  0.31532296  0.59288694  1.0
  O  O3  1  0.62084889  0.68468206  0.40711706  1.0
  O  O4  1  0.31533216  0.37914770  0.09289357  1.0
  O  O5  1  0.68467317  0.62084780  0.90711003  1.0
  F  F6  1  0.00000641  0.99999379  0.99999296  1.0
  F  F7  1  0.99999053  0.00001029  0.49999059  1.0
