# generated using pymatgen
data_PrSCl
_symmetry_space_group_name_H-M   'P 1'
_cell_length_a   8.56719871
_cell_length_b   8.56719848
_cell_length_c   8.56719846
_cell_angle_alpha   60.00001566
_cell_angle_beta   60.00000870
_cell_angle_gamma   60.00001826
_symmetry_Int_Tables_number   1
_chemical_formula_structural   PrSCl
_chemical_formula_sum   'Pr4 S4 Cl4'
_cell_volume   444.63294468
_cell_formula_units_Z   4
loop_
 _symmetry_equiv_pos_site_id
 _symmetry_equiv_pos_as_xyz
  1  'x, y, z'
loop_
 _atom_site_type_symbol
 _atom_site_label
 _atom_site_symmetry_multiplicity
 _atom_site_fract_x
 _atom_site_fract_y
 _atom_site_fract_z
 _atom_site_occupancy
  Pr  Pr0  1  0.36655548  0.36655551  0.36655541  1.0
  Pr  Pr1  1  0.36655544  0.36655543  0.90033367  1.0
  Pr  Pr2  1  0.36655539  0.90033380  0.36655541  1.0
  Pr  Pr3  1  0.90033370  0.36655543  0.36655546  1.0
  S  S4  1  0.13925051  0.13925056  0.13925053  1.0
  S  S5  1  0.13925055  0.13925068  0.58224831  1.0
  S  S6  1  0.13925063  0.58224823  0.13925059  1.0
  S  S7  1  0.58224828  0.13925066  0.13925052  1.0
  Cl  Cl8  1  0.60890698  0.60890700  0.60890705  1.0
  Cl  Cl9  1  0.60890714  0.60890701  0.17327882  1.0
  Cl  Cl10  1  0.60890713  0.17327864  0.60890709  1.0
  Cl  Cl11  1  0.17327876  0.60890704  0.60890713  1.0
