# generated using pymatgen
data_PtPbF4
_symmetry_space_group_name_H-M   'P 1'
_cell_length_a   5.56655584
_cell_length_b   6.17022396
_cell_length_c   6.04144696
_cell_angle_alpha   90.00002237
_cell_angle_beta   89.99999357
_cell_angle_gamma   97.33119936
_symmetry_Int_Tables_number   1
_chemical_formula_structural   PtPbF4
_chemical_formula_sum   'Pt2 Pb2 F8'
_cell_volume   205.80862052
_cell_formula_units_Z   2
loop_
 _symmetry_equiv_pos_site_id
 _symmetry_equiv_pos_as_xyz
  1  'x, y, z'
loop_
 _atom_site_type_symbol
 _atom_site_label
 _atom_site_symmetry_multiplicity
 _atom_site_fract_x
 _atom_site_fract_y
 _atom_site_fract_z
 _atom_site_occupancy
  Pt  Pt0  1  0.00000002  0.75000005  0.84530379  1.0
  Pt  Pt1  1  0.99999998  0.24999997  0.15469644  1.0
  Pb  Pb2  1  0.49999995  0.74999998  0.29628347  1.0
  Pb  Pb3  1  0.50000006  0.25000004  0.70371673  1.0
  F  F4  1  0.77047425  0.03032758  0.91672315  1.0
  F  F5  1  0.22952609  0.96967249  0.08327660  1.0
  F  F6  1  0.22952584  0.46967259  0.91672332  1.0
  F  F7  1  0.77047375  0.53032730  0.08327641  1.0
  F  F8  1  0.74084881  0.59585809  0.59453235  1.0
  F  F9  1  0.25915102  0.40414195  0.40546771  1.0
  F  F10  1  0.25915126  0.90414190  0.59453250  1.0
  F  F11  1  0.74084897  0.09585806  0.40546753  1.0
