# generated using pymatgen
data_RbAlS2
_symmetry_space_group_name_H-M   'P 1'
_cell_length_a   7.49740434
_cell_length_b   7.49741267
_cell_length_c   15.59736240
_cell_angle_alpha   83.08595147
_cell_angle_beta   83.08596842
_cell_angle_gamma   90.00150003
_symmetry_Int_Tables_number   1
_chemical_formula_structural   RbAlS2
_chemical_formula_sum   'Rb8 Al8 S16'
_cell_volume   863.94643538
_cell_formula_units_Z   8
loop_
 _symmetry_equiv_pos_site_id
 _symmetry_equiv_pos_as_xyz
  1  'x, y, z'
loop_
 _atom_site_type_symbol
 _atom_site_label
 _atom_site_symmetry_multiplicity
 _atom_site_fract_x
 _atom_site_fract_y
 _atom_site_fract_z
 _atom_site_occupancy
  Rb  Rb0  1  0.65262941  0.77476471  0.89600521  1.0
  Rb  Rb1  1  0.22523525  0.34737052  0.60399474  1.0
  Rb  Rb2  1  0.34737069  0.22523516  0.10399484  1.0
  Rb  Rb3  1  0.77476470  0.65262937  0.39600496  1.0
  Rb  Rb4  1  0.22447090  0.84922637  0.60831126  1.0
  Rb  Rb5  1  0.15077361  0.77552892  0.89168873  1.0
  Rb  Rb6  1  0.77552891  0.15077357  0.39168883  1.0
  Rb  Rb7  1  0.84922645  0.22447119  0.10831130  1.0
  Al  Al8  1  0.42148059  0.29225611  0.83231925  1.0
  Al  Al9  1  0.70774381  0.57851941  0.66768102  1.0
  Al  Al10  1  0.57851939  0.70774387  0.16768077  1.0
  Al  Al11  1  0.29225619  0.42148060  0.33231899  1.0
  Al  Al12  1  0.70764440  0.08688014  0.66826542  1.0
  Al  Al13  1  0.91311983  0.29235553  0.83173484  1.0
  Al  Al14  1  0.29235560  0.91311990  0.33173459  1.0
  Al  Al15  1  0.08688019  0.70764449  0.16826518  1.0
  S  S16  1  0.64549725  0.27077356  0.92165847  1.0
  S  S17  1  0.72922639  0.35450282  0.57834144  1.0
  S  S18  1  0.35450275  0.72922646  0.07834154  1.0
  S  S19  1  0.27077365  0.64549722  0.42165855  1.0
  S  S20  1  0.43728656  0.06139778  0.75084511  1.0
  S  S21  1  0.93860202  0.56271365  0.74915477  1.0
  S  S22  1  0.56271343  0.93860227  0.24915489  1.0
  S  S23  1  0.06139798  0.43728633  0.25084524  1.0
  S  S24  1  0.43724484  0.56275539  0.74999995  1.0
  S  S25  1  0.56275516  0.43724458  0.25000006  1.0
  S  S26  1  0.93823570  0.06176412  0.74999993  1.0
  S  S27  1  0.06176430  0.93823594  0.25000008  1.0
  S  S28  1  0.72832109  0.85442791  0.58327069  1.0
  S  S29  1  0.14557213  0.27167892  0.91672926  1.0
  S  S30  1  0.27167894  0.14557209  0.41672931  1.0
  S  S31  1  0.85442786  0.72832112  0.08327077  1.0
