# generated using pymatgen
data_RbBS2
_symmetry_space_group_name_H-M   'P 1'
_cell_length_a   6.50114241
_cell_length_b   6.50133803
_cell_length_c   5.82082351
_cell_angle_alpha   101.40054305
_cell_angle_beta   101.39974051
_cell_angle_gamma   101.60263518
_symmetry_Int_Tables_number   1
_chemical_formula_structural   RbBS2
_chemical_formula_sum   'Rb2 B2 S4'
_cell_volume   228.90716337
_cell_formula_units_Z   2
loop_
 _symmetry_equiv_pos_site_id
 _symmetry_equiv_pos_as_xyz
  1  'x, y, z'
loop_
 _atom_site_type_symbol
 _atom_site_label
 _atom_site_symmetry_multiplicity
 _atom_site_fract_x
 _atom_site_fract_y
 _atom_site_fract_z
 _atom_site_occupancy
  Rb  Rb0  1  0.68240571  0.31767242  0.25000110  1.0
  Rb  Rb1  1  0.31765952  0.68239268  0.74999709  1.0
  B  B2  1  0.99999610  0.99999401  0.99999745  1.0
  B  B3  1  0.99999398  0.99999618  0.49999745  1.0
  S  S4  1  0.17486611  0.17724571  0.32681744  1.0
  S  S5  1  0.17716838  0.17481281  0.82678872  1.0
  S  S6  1  0.82533215  0.82250078  0.67318603  1.0
  S  S7  1  0.82257803  0.82538541  0.17321473  1.0
