# generated using pymatgen
data_RbCuCl2
_symmetry_space_group_name_H-M   'P 1'
_cell_length_a   5.18073819
_cell_length_b   5.18070895
_cell_length_c   5.18071210
_cell_angle_alpha   59.98250818
_cell_angle_beta   59.98198474
_cell_angle_gamma   59.98214250
_symmetry_Int_Tables_number   1
_chemical_formula_structural   RbCuCl2
_chemical_formula_sum   'Rb1 Cu1 Cl2'
_cell_volume   98.28338230
_cell_formula_units_Z   1
loop_
 _symmetry_equiv_pos_site_id
 _symmetry_equiv_pos_as_xyz
  1  'x, y, z'
loop_
 _atom_site_type_symbol
 _atom_site_label
 _atom_site_symmetry_multiplicity
 _atom_site_fract_x
 _atom_site_fract_y
 _atom_site_fract_z
 _atom_site_occupancy
  Rb  Rb0  1  0.00000002  0.99999956  0.99999998  1.0
  Cu  Cu1  1  0.50000012  0.50000043  0.50000014  1.0
  Cl  Cl2  1  0.75000521  0.75000529  0.75000540  1.0
  Cl  Cl3  1  0.24999465  0.24999472  0.24999448  1.0
