# generated using pymatgen
data_RbGaS2
_symmetry_space_group_name_H-M   'P 1'
_cell_length_a   6.68987504
_cell_length_b   6.68992239
_cell_length_c   6.74903678
_cell_angle_alpha   97.56153975
_cell_angle_beta   97.56104498
_cell_angle_gamma   106.09679721
_symmetry_Int_Tables_number   1
_chemical_formula_structural   RbGaS2
_chemical_formula_sum   'Rb2 Ga2 S4'
_cell_volume   283.17133746
_cell_formula_units_Z   2
loop_
 _symmetry_equiv_pos_site_id
 _symmetry_equiv_pos_as_xyz
  1  'x, y, z'
loop_
 _atom_site_type_symbol
 _atom_site_label
 _atom_site_symmetry_multiplicity
 _atom_site_fract_x
 _atom_site_fract_y
 _atom_site_fract_z
 _atom_site_occupancy
  Rb  Rb0  1  0.66066195  0.33933884  0.25000007  1.0
  Rb  Rb1  1  0.33933747  0.66066118  0.75000034  1.0
  Ga  Ga2  1  0.00000019  0.99999995  0.99999974  1.0
  Ga  Ga3  1  0.99999990  0.00000000  0.49999972  1.0
  S  S4  1  0.16415179  0.25129545  0.34203472  1.0
  S  S5  1  0.25129425  0.16414986  0.84203684  1.0
  S  S6  1  0.83584761  0.74870537  0.65796542  1.0
  S  S7  1  0.74870684  0.83584934  0.15796313  1.0
