# generated using pymatgen
data_RbInBr4
_symmetry_space_group_name_H-M   'P 1'
_cell_length_a   7.78563353
_cell_length_b   7.41960602
_cell_length_c   8.44393377
_cell_angle_alpha   90.00004717
_cell_angle_beta   90.00013763
_cell_angle_gamma   84.59299658
_symmetry_Int_Tables_number   1
_chemical_formula_structural   RbInBr4
_chemical_formula_sum   'Rb2 In2 Br8'
_cell_volume   485.60471575
_cell_formula_units_Z   2
loop_
 _symmetry_equiv_pos_site_id
 _symmetry_equiv_pos_as_xyz
  1  'x, y, z'
loop_
 _atom_site_type_symbol
 _atom_site_label
 _atom_site_symmetry_multiplicity
 _atom_site_fract_x
 _atom_site_fract_y
 _atom_site_fract_z
 _atom_site_occupancy
  Rb  Rb0  1  0.99999891  0.74999890  0.18694603  1.0
  Rb  Rb1  1  0.00000104  0.25000102  0.81305398  1.0
  In  In2  1  0.50000017  0.75000016  0.63730505  1.0
  In  In3  1  0.49999988  0.24999988  0.36269499  1.0
  Br  Br4  1  0.30988540  0.44384561  0.59561917  1.0
  Br  Br5  1  0.69011496  0.05615461  0.59561961  1.0
  Br  Br6  1  0.69011450  0.55615442  0.40438083  1.0
  Br  Br7  1  0.30988510  0.94384538  0.40438033  1.0
  Br  Br8  1  0.27110861  0.36760619  0.14923018  1.0
  Br  Br9  1  0.72889211  0.13239342  0.14923017  1.0
  Br  Br10  1  0.72889149  0.63239379  0.85076976  1.0
  Br  Br11  1  0.27110782  0.86760662  0.85076991  1.0
