# generated using pymatgen
data_RbLiF2
_symmetry_space_group_name_H-M   'P 1'
_cell_length_a   3.29794613
_cell_length_b   6.38484442
_cell_length_c   7.41042805
_cell_angle_alpha   91.07784104
_cell_angle_beta   89.99999975
_cell_angle_gamma   90.00005192
_symmetry_Int_Tables_number   1
_chemical_formula_structural   RbLiF2
_chemical_formula_sum   'Rb2 Li2 F4'
_cell_volume   156.01283242
_cell_formula_units_Z   2
loop_
 _symmetry_equiv_pos_site_id
 _symmetry_equiv_pos_as_xyz
  1  'x, y, z'
loop_
 _atom_site_type_symbol
 _atom_site_label
 _atom_site_symmetry_multiplicity
 _atom_site_fract_x
 _atom_site_fract_y
 _atom_site_fract_z
 _atom_site_occupancy
  Rb  Rb0  1  0.99999998  0.00256037  0.73788658  1.0
  Rb  Rb1  1  0.00000002  0.99743964  0.26211342  1.0
  Li  Li2  1  0.50000000  0.50000000  0.00000000  1.0
  Li  Li3  1  0.50000002  0.50000000  0.50000000  1.0
  F  F4  1  0.50000034  0.23491135  0.50720641  1.0
  F  F5  1  0.99999924  0.70184064  0.98992288  1.0
  F  F6  1  0.00000074  0.29815936  0.01007711  1.0
  F  F7  1  0.49999965  0.76508865  0.49279360  1.0
