# generated using pymatgen
data_RbLiS
_symmetry_space_group_name_H-M   'P 1'
_cell_length_a   4.71464882
_cell_length_b   4.71465441
_cell_length_c   4.71465067
_cell_angle_alpha   59.99994292
_cell_angle_beta   59.99989424
_cell_angle_gamma   59.99988047
_symmetry_Int_Tables_number   1
_chemical_formula_structural   RbLiS
_chemical_formula_sum   'Rb1 Li1 S1'
_cell_volume   74.10249107
_cell_formula_units_Z   1
loop_
 _symmetry_equiv_pos_site_id
 _symmetry_equiv_pos_as_xyz
  1  'x, y, z'
loop_
 _atom_site_type_symbol
 _atom_site_label
 _atom_site_symmetry_multiplicity
 _atom_site_fract_x
 _atom_site_fract_y
 _atom_site_fract_z
 _atom_site_occupancy
  Rb  Rb0  1  0.24999898  0.25000006  0.25000071  1.0
  Li  Li1  1  0.00000048  0.99999975  0.99999932  1.0
  S  S2  1  0.75000054  0.75000019  0.74999997  1.0
