# generated using pymatgen
data_RbMnI4
_symmetry_space_group_name_H-M   'P 1'
_cell_length_a   8.06447684
_cell_length_b   8.32802343
_cell_length_c   8.94789909
_cell_angle_alpha   69.04790458
_cell_angle_beta   89.99892318
_cell_angle_gamma   89.99837796
_symmetry_Int_Tables_number   1
_chemical_formula_structural   RbMnI4
_chemical_formula_sum   'Rb2 Mn2 I8'
_cell_volume   561.21615429
_cell_formula_units_Z   2
loop_
 _symmetry_equiv_pos_site_id
 _symmetry_equiv_pos_as_xyz
  1  'x, y, z'
loop_
 _atom_site_type_symbol
 _atom_site_label
 _atom_site_symmetry_multiplicity
 _atom_site_fract_x
 _atom_site_fract_y
 _atom_site_fract_z
 _atom_site_occupancy
  Rb  Rb0  1  0.20098531  0.49999419  0.74999966  1.0
  Rb  Rb1  1  0.79901346  0.50000575  0.25000034  1.0
  Mn  Mn2  1  0.87021209  0.99998591  0.74998281  1.0
  Mn  Mn3  1  0.12978876  0.00001414  0.25001709  1.0
  I  I4  1  0.10004465  0.81167091  0.94990874  1.0
  I  I5  1  0.89994996  0.81168269  0.44992478  1.0
  I  I6  1  0.64434409  0.75858986  0.85230491  1.0
  I  I7  1  0.35564740  0.75859186  0.35230345  1.0
  I  I8  1  0.64435153  0.24140902  0.64769656  1.0
  I  I9  1  0.35565485  0.24140923  0.14769516  1.0
  I  I10  1  0.10005132  0.18831827  0.55007281  1.0
  I  I11  1  0.89995659  0.18832817  0.05009370  1.0
