# generated using pymatgen
data_RbNaI2
_symmetry_space_group_name_H-M   'P 1'
_cell_length_a   7.27594454
_cell_length_b   7.27594511
_cell_length_c   8.80387456
_cell_angle_alpha   103.15107498
_cell_angle_beta   103.15107544
_cell_angle_gamma   97.31200054
_symmetry_Int_Tables_number   1
_chemical_formula_structural   RbNaI2
_chemical_formula_sum   'Rb2 Na2 I4'
_cell_volume   433.99625787
_cell_formula_units_Z   2
loop_
 _symmetry_equiv_pos_site_id
 _symmetry_equiv_pos_as_xyz
  1  'x, y, z'
loop_
 _atom_site_type_symbol
 _atom_site_label
 _atom_site_symmetry_multiplicity
 _atom_site_fract_x
 _atom_site_fract_y
 _atom_site_fract_z
 _atom_site_occupancy
  Rb  Rb0  1  0.63747513  0.36252488  0.25000001  1.0
  Rb  Rb1  1  0.36252487  0.63747513  0.74999999  1.0
  Na  Na2  1  0.00000000  0.99999999  0.00000000  1.0
  Na  Na3  1  0.99999999  0.00000000  0.50000000  1.0
  I  I4  1  0.16433692  0.30560845  0.33885688  1.0
  I  I5  1  0.30560843  0.16433691  0.83885689  1.0
  I  I6  1  0.83566309  0.69439155  0.66114313  1.0
  I  I7  1  0.69439157  0.83566310  0.16114311  1.0
