# generated using pymatgen
data_RbNaH2
_symmetry_space_group_name_H-M   'P 1'
_cell_length_a   5.81513255
_cell_length_b   5.81513274
_cell_length_c   6.56288527
_cell_angle_alpha   102.06732666
_cell_angle_beta   102.06732552
_cell_angle_gamma   101.41588656
_symmetry_Int_Tables_number   1
_chemical_formula_structural   RbNaH2
_chemical_formula_sum   'Rb2 Na2 H4'
_cell_volume   205.34244665
_cell_formula_units_Z   2
loop_
 _symmetry_equiv_pos_site_id
 _symmetry_equiv_pos_as_xyz
  1  'x, y, z'
loop_
 _atom_site_type_symbol
 _atom_site_label
 _atom_site_symmetry_multiplicity
 _atom_site_fract_x
 _atom_site_fract_y
 _atom_site_fract_z
 _atom_site_occupancy
  Rb  Rb0  1  0.63409706  0.36590295  0.25000000  1.0
  Rb  Rb1  1  0.36590294  0.63409705  0.75000000  1.0
  Na  Na2  1  0.00000000  0.00000000  0.00000000  1.0
  Na  Na3  1  0.00000000  0.00000000  0.50000000  1.0
  H  H4  1  0.16024994  0.27734606  0.33441119  1.0
  H  H5  1  0.27734606  0.16024994  0.83441120  1.0
  H  H6  1  0.83975006  0.72265394  0.66558880  1.0
  H  H7  1  0.72265394  0.83975006  0.16558881  1.0
