# generated using pymatgen
data_RbNdI4
_symmetry_space_group_name_H-M   'P 1'
_cell_length_a   8.45398913
_cell_length_b   8.45146313
_cell_length_c   8.76764201
_cell_angle_alpha   90.00000017
_cell_angle_beta   89.99999974
_cell_angle_gamma   100.89712194
_symmetry_Int_Tables_number   1
_chemical_formula_structural   RbNdI4
_chemical_formula_sum   'Rb2 Nd2 I8'
_cell_volume   615.13979481
_cell_formula_units_Z   2
loop_
 _symmetry_equiv_pos_site_id
 _symmetry_equiv_pos_as_xyz
  1  'x, y, z'
loop_
 _atom_site_type_symbol
 _atom_site_label
 _atom_site_symmetry_multiplicity
 _atom_site_fract_x
 _atom_site_fract_y
 _atom_site_fract_z
 _atom_site_occupancy
  Rb  Rb0  1  0.00000001  0.75000000  0.77189828  1.0
  Rb  Rb1  1  0.00000000  0.25000000  0.22810171  1.0
  Nd  Nd2  1  0.50000000  0.25000000  0.66116671  1.0
  Nd  Nd3  1  0.50000000  0.75000000  0.33883329  1.0
  I  I4  1  0.72543456  0.00195943  0.56992312  1.0
  I  I5  1  0.27456544  0.49804056  0.56992312  1.0
  I  I6  1  0.27456544  0.99804056  0.43007688  1.0
  I  I7  1  0.72543456  0.50195944  0.43007688  1.0
  I  I8  1  0.26077248  0.61760563  0.09316309  1.0
  I  I9  1  0.73922752  0.88239437  0.09316308  1.0
  I  I10  1  0.73922752  0.38239438  0.90683692  1.0
  I  I11  1  0.26077248  0.11760563  0.90683692  1.0
