# generated using pymatgen
data_RbPrO2
_symmetry_space_group_name_H-M   'P 1'
_cell_length_a   7.24561449
_cell_length_b   7.35694557
_cell_length_c   7.24505313
_cell_angle_alpha   119.50233755
_cell_angle_beta   150.36407251
_cell_angle_gamma   51.58487742
_symmetry_Int_Tables_number   1
_chemical_formula_structural   RbPrO2
_chemical_formula_sum   'Rb2 Pr2 O4'
_cell_volume   148.49786270
_cell_formula_units_Z   2
loop_
 _symmetry_equiv_pos_site_id
 _symmetry_equiv_pos_as_xyz
  1  'x, y, z'
loop_
 _atom_site_type_symbol
 _atom_site_label
 _atom_site_symmetry_multiplicity
 _atom_site_fract_x
 _atom_site_fract_y
 _atom_site_fract_z
 _atom_site_occupancy
  Rb  Rb0  1  0.99627457  0.24997166  0.74625342  1.0
  Rb  Rb1  1  0.00371703  0.75002928  0.25373858  1.0
  Pr  Pr2  1  0.00000241  0.49999966  0.50000256  1.0
  Pr  Pr3  1  0.00000250  0.99999956  0.00000245  1.0
  O  O4  1  0.33696931  0.25644137  0.40628267  1.0
  O  O5  1  0.66294291  0.24356013  0.09362436  1.0
  O  O6  1  0.33705900  0.75643963  0.90637715  1.0
  O  O7  1  0.66303227  0.74355872  0.59371881  1.0
