# generated using pymatgen
data_RbSmCl4
_symmetry_space_group_name_H-M   'P 1'
_cell_length_a   7.48903691
_cell_length_b   7.32005498
_cell_length_c   8.03039557
_cell_angle_alpha   89.99985884
_cell_angle_beta   90.00003390
_cell_angle_gamma   95.87360656
_symmetry_Int_Tables_number   1
_chemical_formula_structural   RbSmCl4
_chemical_formula_sum   'Rb2 Sm2 Cl8'
_cell_volume   437.91641850
_cell_formula_units_Z   2
loop_
 _symmetry_equiv_pos_site_id
 _symmetry_equiv_pos_as_xyz
  1  'x, y, z'
loop_
 _atom_site_type_symbol
 _atom_site_label
 _atom_site_symmetry_multiplicity
 _atom_site_fract_x
 _atom_site_fract_y
 _atom_site_fract_z
 _atom_site_occupancy
  Rb  Rb0  1  0.99999981  0.74999999  0.80461840  1.0
  Rb  Rb1  1  0.00000020  0.25000001  0.19538163  1.0
  Sm  Sm2  1  0.50000016  0.25000122  0.65828124  1.0
  Sm  Sm3  1  0.49999983  0.74999834  0.34171645  1.0
  Cl  Cl4  1  0.70300815  0.96594740  0.58135970  1.0
  Cl  Cl5  1  0.29699262  0.53405252  0.58135977  1.0
  Cl  Cl6  1  0.29699175  0.03405292  0.41864054  1.0
  Cl  Cl7  1  0.70300738  0.46594758  0.41864047  1.0
  Cl  Cl8  1  0.25988736  0.62657381  0.12228543  1.0
  Cl  Cl9  1  0.74011292  0.87342656  0.12228472  1.0
  Cl  Cl10  1  0.74011342  0.37342696  0.87771560  1.0
  Cl  Cl11  1  0.25988641  0.12657268  0.87771605  1.0
