# generated using pymatgen
data_RbTbI4
_symmetry_space_group_name_H-M   'P 1'
_cell_length_a   8.41821442
_cell_length_b   8.27072089
_cell_length_c   8.73780560
_cell_angle_alpha   90.00000001
_cell_angle_beta   90.00000000
_cell_angle_gamma   100.12265652
_symmetry_Int_Tables_number   1
_chemical_formula_structural   RbTbI4
_chemical_formula_sum   'Rb2 Tb2 I8'
_cell_volume   598.89711990
_cell_formula_units_Z   2
loop_
 _symmetry_equiv_pos_site_id
 _symmetry_equiv_pos_as_xyz
  1  'x, y, z'
loop_
 _atom_site_type_symbol
 _atom_site_label
 _atom_site_symmetry_multiplicity
 _atom_site_fract_x
 _atom_site_fract_y
 _atom_site_fract_z
 _atom_site_occupancy
  Rb  Rb0  1  0.00000000  0.75000000  0.77616925  1.0
  Rb  Rb1  1  0.00000000  0.25000000  0.22383075  1.0
  Tb  Tb2  1  0.50000000  0.25000000  0.65634595  1.0
  Tb  Tb3  1  0.50000000  0.75000000  0.34365406  1.0
  I  I4  1  0.71331327  0.98873555  0.58031734  1.0
  I  I5  1  0.28668673  0.51126445  0.58031734  1.0
  I  I6  1  0.28668673  0.01126445  0.41968266  1.0
  I  I7  1  0.71331327  0.48873555  0.41968266  1.0
  I  I8  1  0.26473319  0.61958487  0.10539469  1.0
  I  I9  1  0.73526681  0.88041513  0.10539469  1.0
  I  I10  1  0.73526681  0.38041513  0.89460531  1.0
  I  I11  1  0.26473319  0.11958487  0.89460531  1.0
