# generated using pymatgen
data_RbTlCl2
_symmetry_space_group_name_H-M   'P 1'
_cell_length_a   4.28856809
_cell_length_b   6.09307621
_cell_length_c   13.05826005
_cell_angle_alpha   61.88408998
_cell_angle_beta   90.06254452
_cell_angle_gamma   90.09212256
_symmetry_Int_Tables_number   1
_chemical_formula_structural   RbTlCl2
_chemical_formula_sum   'Rb2 Tl2 Cl4'
_cell_volume   300.95410819
_cell_formula_units_Z   2
loop_
 _symmetry_equiv_pos_site_id
 _symmetry_equiv_pos_as_xyz
  1  'x, y, z'
loop_
 _atom_site_type_symbol
 _atom_site_label
 _atom_site_symmetry_multiplicity
 _atom_site_fract_x
 _atom_site_fract_y
 _atom_site_fract_z
 _atom_site_occupancy
  Rb  Rb0  1  0.99991458  0.87326413  0.37611912  1.0
  Rb  Rb1  1  0.00008463  0.12673572  0.62388064  1.0
  Tl  Tl2  1  0.49999571  0.62124780  0.13457471  1.0
  Tl  Tl3  1  0.50000809  0.37875226  0.86542552  1.0
  Cl  Cl4  1  0.49975037  0.10948705  0.15262300  1.0
  Cl  Cl5  1  0.50024750  0.89051299  0.84737677  1.0
  Cl  Cl6  1  0.50000261  0.63936739  0.60772569  1.0
  Cl  Cl7  1  0.49999649  0.36063265  0.39227454  1.0
