# generated using pymatgen
data_RbTlF2
_symmetry_space_group_name_H-M   'P 1'
_cell_length_a   3.91639911
_cell_length_b   3.91639788
_cell_length_c   7.06908516
_cell_angle_alpha   90.00001278
_cell_angle_beta   89.99998333
_cell_angle_gamma   120.00037534
_symmetry_Int_Tables_number   1
_chemical_formula_structural   RbTlF2
_chemical_formula_sum   'Rb1 Tl1 F2'
_cell_volume   93.90007792
_cell_formula_units_Z   1
loop_
 _symmetry_equiv_pos_site_id
 _symmetry_equiv_pos_as_xyz
  1  'x, y, z'
loop_
 _atom_site_type_symbol
 _atom_site_label
 _atom_site_symmetry_multiplicity
 _atom_site_fract_x
 _atom_site_fract_y
 _atom_site_fract_z
 _atom_site_occupancy
  Rb  Rb0  1  0.99999980  0.99999991  0.00000000  1.0
  Tl  Tl1  1  0.00000008  0.99999999  0.49999996  1.0
  F  F2  1  0.66666667  0.33333333  0.75110322  1.0
  F  F3  1  0.33333333  0.66666667  0.24889682  1.0
