# generated using pymatgen
data_RbTmI4
_symmetry_space_group_name_H-M   'P 1'
_cell_length_a   8.23281962
_cell_length_b   7.94083594
_cell_length_c   9.36820920
_cell_angle_alpha   90.00107841
_cell_angle_beta   90.00003517
_cell_angle_gamma   92.70100239
_symmetry_Int_Tables_number   1
_chemical_formula_structural   RbTmI4
_chemical_formula_sum   'Rb2 Tm2 I8'
_cell_volume   611.77067660
_cell_formula_units_Z   2
loop_
 _symmetry_equiv_pos_site_id
 _symmetry_equiv_pos_as_xyz
  1  'x, y, z'
loop_
 _atom_site_type_symbol
 _atom_site_label
 _atom_site_symmetry_multiplicity
 _atom_site_fract_x
 _atom_site_fract_y
 _atom_site_fract_z
 _atom_site_occupancy
  Rb  Rb0  1  0.00000002  0.75000002  0.83999397  1.0
  Rb  Rb1  1  0.99999999  0.24999998  0.16000602  1.0
  Tm  Tm2  1  0.49999990  0.75000015  0.36094263  1.0
  Tm  Tm3  1  0.50000010  0.24999986  0.63905738  1.0
  I  I4  1  0.72609383  0.37979006  0.85684645  1.0
  I  I5  1  0.27390616  0.62020995  0.14315354  1.0
  I  I6  1  0.27390598  0.12020974  0.85684666  1.0
  I  I7  1  0.72609404  0.87979025  0.14315334  1.0
  I  I8  1  0.70272495  0.94346449  0.59423079  1.0
  I  I9  1  0.29727505  0.05653550  0.40576921  1.0
  I  I10  1  0.29727493  0.55653538  0.59423088  1.0
  I  I11  1  0.70272506  0.44346463  0.40576913  1.0
