# generated using pymatgen
data_RbYS2
_symmetry_space_group_name_H-M   'P 1'
_cell_length_a   4.32885503
_cell_length_b   8.02022499
_cell_length_c   8.34595590
_cell_angle_alpha   92.45744489
_cell_angle_beta   90.00001269
_cell_angle_gamma   89.99991607
_symmetry_Int_Tables_number   1
_chemical_formula_structural   RbYS2
_chemical_formula_sum   'Rb2 Y2 S4'
_cell_volume   289.49168459
_cell_formula_units_Z   2
loop_
 _symmetry_equiv_pos_site_id
 _symmetry_equiv_pos_as_xyz
  1  'x, y, z'
loop_
 _atom_site_type_symbol
 _atom_site_label
 _atom_site_symmetry_multiplicity
 _atom_site_fract_x
 _atom_site_fract_y
 _atom_site_fract_z
 _atom_site_occupancy
  Rb  Rb0  1  0.00000014  0.99999986  0.00000027  1.0
  Rb  Rb1  1  0.50000002  0.00000036  0.50000046  1.0
  Y  Y2  1  0.50000019  0.59775158  0.80884285  1.0
  Y  Y3  1  0.49999946  0.40224831  0.19115676  1.0
  S  S4  1  0.99999953  0.27256217  0.31858837  1.0
  S  S5  1  0.49999927  0.29076121  0.89331840  1.0
  S  S6  1  0.50000101  0.70923854  0.10668121  1.0
  S  S7  1  0.00000037  0.72743799  0.68141167  1.0
