# generated using pymatgen
data_SbClF2
_symmetry_space_group_name_H-M   'P 1'
_cell_length_a   3.13085526
_cell_length_b   4.46846330
_cell_length_c   5.43732389
_cell_angle_alpha   112.61435092
_cell_angle_beta   89.99999868
_cell_angle_gamma   89.99999764
_symmetry_Int_Tables_number   1
_chemical_formula_structural   SbClF2
_chemical_formula_sum   'Sb1 Cl1 F2'
_cell_volume   70.22014080
_cell_formula_units_Z   1
loop_
 _symmetry_equiv_pos_site_id
 _symmetry_equiv_pos_as_xyz
  1  'x, y, z'
loop_
 _atom_site_type_symbol
 _atom_site_label
 _atom_site_symmetry_multiplicity
 _atom_site_fract_x
 _atom_site_fract_y
 _atom_site_fract_z
 _atom_site_occupancy
  Sb  Sb0  1  0.00000001  0.99999997  0.49999996  1.0
  Cl  Cl1  1  0.99999996  0.00000001  0.00000000  1.0
  F  F2  1  0.00000005  0.49999999  0.50000000  1.0
  F  F3  1  0.99999999  0.50000003  0.00000003  1.0
