# generated using pymatgen
data_SbO2F
_symmetry_space_group_name_H-M   'P 1'
_cell_length_a   4.08097760
_cell_length_b   6.37371143
_cell_length_c   11.09368278
_cell_angle_alpha   82.23343654
_cell_angle_beta   90.02015989
_cell_angle_gamma   108.77450007
_symmetry_Int_Tables_number   1
_chemical_formula_structural   SbO2F
_chemical_formula_sum   'Sb4 O8 F4'
_cell_volume   270.41156194
_cell_formula_units_Z   4
loop_
 _symmetry_equiv_pos_site_id
 _symmetry_equiv_pos_as_xyz
  1  'x, y, z'
loop_
 _atom_site_type_symbol
 _atom_site_label
 _atom_site_symmetry_multiplicity
 _atom_site_fract_x
 _atom_site_fract_y
 _atom_site_fract_z
 _atom_site_occupancy
  Sb  Sb0  1  0.94472253  0.39085602  0.67111388  1.0
  Sb  Sb1  1  0.55207621  0.60311832  0.86493057  1.0
  Sb  Sb2  1  0.05055212  0.60288264  0.36493275  1.0
  Sb  Sb3  1  0.44417421  0.39060148  0.17116815  1.0
  O  O4  1  0.39481143  0.28351856  0.96310527  1.0
  O  O5  1  0.07705776  0.65431283  0.53384148  1.0
  O  O6  1  0.57577596  0.65434139  0.03386247  1.0
  O  O7  1  0.88768675  0.28325298  0.46313943  1.0
  O  O8  1  0.99237587  0.48730059  0.20572881  1.0
  O  O9  1  0.49353813  0.48747548  0.70572378  1.0
  O  O10  1  0.03707281  0.57304515  0.82736213  1.0
  O  O11  1  0.53500816  0.57258712  0.32734640  1.0
  F  F12  1  0.30803914  0.09836612  0.89171472  1.0
  F  F13  1  0.70977578  0.91035679  0.79212333  1.0
  F  F14  1  0.79535420  0.09786993  0.39175004  1.0
  F  F15  1  0.20197893  0.91011459  0.29215679  1.0
