# generated using pymatgen
data_ScBrO
_symmetry_space_group_name_H-M   'P 1'
_cell_length_a   4.22177125
_cell_length_b   4.22176902
_cell_length_c   4.22176842
_cell_angle_alpha   60.00006355
_cell_angle_beta   59.99995420
_cell_angle_gamma   59.99999896
_symmetry_Int_Tables_number   1
_chemical_formula_structural   ScBrO
_chemical_formula_sum   'Sc1 Br1 O1'
_cell_volume   53.20698261
_cell_formula_units_Z   1
loop_
 _symmetry_equiv_pos_site_id
 _symmetry_equiv_pos_as_xyz
  1  'x, y, z'
loop_
 _atom_site_type_symbol
 _atom_site_label
 _atom_site_symmetry_multiplicity
 _atom_site_fract_x
 _atom_site_fract_y
 _atom_site_fract_z
 _atom_site_occupancy
  Sc  Sc0  1  0.24999979  0.25000042  0.24999979  1.0
  Br  Br1  1  0.50000007  0.49999972  0.50000012  1.0
  O  O2  1  0.00000014  0.99999986  0.00000010  1.0
