# generated using pymatgen
data_ScBr2Cl
_symmetry_space_group_name_H-M   'P 1'
_cell_length_a   3.46588319
_cell_length_b   9.64456635
_cell_length_c   11.65556577
_cell_angle_alpha   71.07289388
_cell_angle_beta   89.96083525
_cell_angle_gamma   89.99002800
_symmetry_Int_Tables_number   1
_chemical_formula_structural   ScBr2Cl
_chemical_formula_sum   'Sc2 Br4 Cl2'
_cell_volume   368.54439152
_cell_formula_units_Z   2
loop_
 _symmetry_equiv_pos_site_id
 _symmetry_equiv_pos_as_xyz
  1  'x, y, z'
loop_
 _atom_site_type_symbol
 _atom_site_label
 _atom_site_symmetry_multiplicity
 _atom_site_fract_x
 _atom_site_fract_y
 _atom_site_fract_z
 _atom_site_occupancy
  Sc  Sc0  1  0.99998543  0.81367610  0.30653722  1.0
  Sc  Sc1  1  0.00001430  0.18632372  0.69345977  1.0
  Br  Br2  1  0.50011329  0.02769912  0.19696839  1.0
  Br  Br3  1  0.49988593  0.97230094  0.80303403  1.0
  Br  Br4  1  0.49945124  0.76785926  0.49060866  1.0
  Br  Br5  1  0.50054929  0.23214141  0.50939175  1.0
  Cl  Cl6  1  0.50020101  0.66364741  0.24078768  1.0
  Cl  Cl7  1  0.49979950  0.33635204  0.75921250  1.0
