# generated using pymatgen
data_ScH2I
_symmetry_space_group_name_H-M   'P 1'
_cell_length_a   6.62079047
_cell_length_b   6.62846792
_cell_length_c   9.24291638
_cell_angle_alpha   111.21705156
_cell_angle_beta   107.01387897
_cell_angle_gamma   89.99900068
_symmetry_Int_Tables_number   1
_chemical_formula_structural   ScH2I
_chemical_formula_sum   'Sc4 H8 I4'
_cell_volume   359.02745811
_cell_formula_units_Z   4
loop_
 _symmetry_equiv_pos_site_id
 _symmetry_equiv_pos_as_xyz
  1  'x, y, z'
loop_
 _atom_site_type_symbol
 _atom_site_label
 _atom_site_symmetry_multiplicity
 _atom_site_fract_x
 _atom_site_fract_y
 _atom_site_fract_z
 _atom_site_occupancy
  Sc  Sc0  1  0.14851560  0.85212565  0.49964563  1.0
  Sc  Sc1  1  0.35150402  0.35232573  0.50035698  1.0
  Sc  Sc2  1  0.85147447  0.14788003  0.50035907  1.0
  Sc  Sc3  1  0.64849793  0.64767787  0.49964329  1.0
  H  H4  1  0.06921312  0.08442722  0.66912138  1.0
  H  H5  1  0.43066000  0.41374903  0.33091048  1.0
  H  H6  1  0.93081120  0.91557849  0.33089511  1.0
  H  H7  1  0.56934052  0.58625088  0.66908273  1.0
  H  H8  1  0.14817292  0.14949113  0.50215894  1.0
  H  H9  1  0.35194844  0.64736134  0.49784394  1.0
  H  H10  1  0.85183185  0.85049386  0.49783163  1.0
  H  H11  1  0.64804744  0.35263341  0.50215271  1.0
  I  I12  1  0.40558838  0.88325758  0.26928628  1.0
  I  I13  1  0.09429361  0.61611345  0.73075644  1.0
  I  I14  1  0.59440294  0.11674179  0.73071736  1.0
  I  I15  1  0.90569755  0.38389254  0.26923805  1.0
