# generated using pymatgen
data_ScTlBr4
_symmetry_space_group_name_H-M   'P 1'
_cell_length_a   7.36285795
_cell_length_b   7.08859386
_cell_length_c   8.46753569
_cell_angle_alpha   89.99996708
_cell_angle_beta   90.00020396
_cell_angle_gamma   92.58159694
_symmetry_Int_Tables_number   1
_chemical_formula_structural   ScTlBr4
_chemical_formula_sum   'Sc2 Tl2 Br8'
_cell_volume   441.49171456
_cell_formula_units_Z   2
loop_
 _symmetry_equiv_pos_site_id
 _symmetry_equiv_pos_as_xyz
  1  'x, y, z'
loop_
 _atom_site_type_symbol
 _atom_site_label
 _atom_site_symmetry_multiplicity
 _atom_site_fract_x
 _atom_site_fract_y
 _atom_site_fract_z
 _atom_site_occupancy
  Sc  Sc0  1  0.99999840  0.24999646  0.86206238  1.0
  Sc  Sc1  1  0.00000063  0.75000344  0.13793320  1.0
  Tl  Tl2  1  0.49999973  0.75000130  0.66026985  1.0
  Tl  Tl3  1  0.50000058  0.24999856  0.33972991  1.0
  Br  Br4  1  0.80334813  0.56034429  0.90343059  1.0
  Br  Br5  1  0.19664854  0.93965901  0.90343230  1.0
  Br  Br6  1  0.80334761  0.06034207  0.09656933  1.0
  Br  Br7  1  0.22977786  0.87123680  0.34788493  1.0
  Br  Br8  1  0.77022604  0.12876571  0.65211630  1.0
  Br  Br9  1  0.19665620  0.43965445  0.09657050  1.0
  Br  Br10  1  0.22977648  0.37123600  0.65211528  1.0
  Br  Br11  1  0.77021980  0.62876192  0.34788544  1.0
