# generated using pymatgen
data_Si5CO8
_symmetry_space_group_name_H-M   'P 1'
_cell_length_a   2.71924811
_cell_length_b   6.76372075
_cell_length_c   6.77182853
_cell_angle_alpha   81.60238177
_cell_angle_beta   78.41758884
_cell_angle_gamma   78.40328856
_symmetry_Int_Tables_number   1
_chemical_formula_structural   Si5CO8
_chemical_formula_sum   'Si5 C1 O8'
_cell_volume   118.79520667
_cell_formula_units_Z   1
loop_
 _symmetry_equiv_pos_site_id
 _symmetry_equiv_pos_as_xyz
  1  'x, y, z'
loop_
 _atom_site_type_symbol
 _atom_site_label
 _atom_site_symmetry_multiplicity
 _atom_site_fract_x
 _atom_site_fract_y
 _atom_site_fract_z
 _atom_site_occupancy
  Si  Si0  1  0.80014252  0.69850999  0.70120139  1.0
  Si  Si1  1  0.19985748  0.30149001  0.29879861  1.0
  Si  Si2  1  0.49884087  0.65984927  0.34247525  1.0
  Si  Si3  1  0.50115912  0.34015073  0.65752475  1.0
  Si  Si4  1  0.00000000  0.00000000  0.00000000  1.0
  C  C5  1  0.00000000  0.50000000  0.50000000  1.0
  O  O6  1  0.00157552  0.20705934  0.78977728  1.0
  O  O7  1  0.99842448  0.79294066  0.21022272  1.0
  O  O8  1  0.31351843  0.55099709  0.82196274  1.0
  O  O9  1  0.68648158  0.44900291  0.17803725  1.0
  O  O10  1  0.68800435  0.17880117  0.44519581  1.0
  O  O11  1  0.31199565  0.82119883  0.55480418  1.0
  O  O12  1  0.38181206  0.11970289  0.11665888  1.0
  O  O13  1  0.61818794  0.88029711  0.88334112  1.0
