# generated using pymatgen
data_SiH3Cl
_symmetry_space_group_name_H-M   'P 1'
_cell_length_a   7.05767673
_cell_length_b   7.07012455
_cell_length_c   8.93616499
_cell_angle_alpha   89.88837717
_cell_angle_beta   89.93747804
_cell_angle_gamma   156.84577431
_symmetry_Int_Tables_number   1
_chemical_formula_structural   SiH3Cl
_chemical_formula_sum   'Si2 H6 Cl2'
_cell_volume   175.32719195
_cell_formula_units_Z   2
loop_
 _symmetry_equiv_pos_site_id
 _symmetry_equiv_pos_as_xyz
  1  'x, y, z'
loop_
 _atom_site_type_symbol
 _atom_site_label
 _atom_site_symmetry_multiplicity
 _atom_site_fract_x
 _atom_site_fract_y
 _atom_site_fract_z
 _atom_site_occupancy
  Si  Si0  1  0.72172732  0.22285400  0.76600990  1.0
  Si  Si1  1  0.21828900  0.71855218  0.26597428  1.0
  H  H2  1  0.69279683  0.26034232  0.60531422  1.0
  H  H3  1  0.31183141  0.63021581  0.35885616  1.0
  H  H4  1  0.25616354  0.69182932  0.10484525  1.0
  H  H5  1  0.63464958  0.31685195  0.86008324  1.0
  H  H6  1  0.62398465  0.60282953  0.66941025  1.0
  H  H7  1  0.58361713  0.59694498  0.17432456  1.0
  Cl  Cl8  1  0.98907025  0.95451742  0.09940225  1.0
  Cl  Cl9  1  0.96787030  0.00506250  0.59577990  1.0
