# generated using pymatgen
data_SmBeO2
_symmetry_space_group_name_H-M   'P 1'
_cell_length_a   4.06517507
_cell_length_b   4.06537726
_cell_length_c   4.06537936
_cell_angle_alpha   60.00194224
_cell_angle_beta   60.00034445
_cell_angle_gamma   60.00282303
_symmetry_Int_Tables_number   1
_chemical_formula_structural   SmBeO2
_chemical_formula_sum   'Sm1 Be1 O2'
_cell_volume   47.50977321
_cell_formula_units_Z   1
loop_
 _symmetry_equiv_pos_site_id
 _symmetry_equiv_pos_as_xyz
  1  'x, y, z'
loop_
 _atom_site_type_symbol
 _atom_site_label
 _atom_site_symmetry_multiplicity
 _atom_site_fract_x
 _atom_site_fract_y
 _atom_site_fract_z
 _atom_site_occupancy
  Sm  Sm0  1  0.00000000  0.00000000  0.99999999  1.0
  Be  Be1  1  0.49999999  0.49999999  0.49999999  1.0
  O  O2  1  0.75000081  0.75000083  0.75000084  1.0
  O  O3  1  0.24999920  0.24999919  0.24999919  1.0
