# generated using pymatgen
data_SmBeH4
_symmetry_space_group_name_H-M   'P 1'
_cell_length_a   3.87111329
_cell_length_b   5.39576671
_cell_length_c   5.42218398
_cell_angle_alpha   90.00030667
_cell_angle_beta   90.00003622
_cell_angle_gamma   89.87818090
_symmetry_Int_Tables_number   1
_chemical_formula_structural   SmBeH4
_chemical_formula_sum   'Sm2 Be2 H8'
_cell_volume   113.25628544
_cell_formula_units_Z   2
loop_
 _symmetry_equiv_pos_site_id
 _symmetry_equiv_pos_as_xyz
  1  'x, y, z'
loop_
 _atom_site_type_symbol
 _atom_site_label
 _atom_site_symmetry_multiplicity
 _atom_site_fract_x
 _atom_site_fract_y
 _atom_site_fract_z
 _atom_site_occupancy
  Sm  Sm0  1  0.99999999  0.74999992  0.75098802  1.0
  Sm  Sm1  1  0.99999992  0.25000008  0.24901198  1.0
  Be  Be2  1  0.50000036  0.25000010  0.74768896  1.0
  Be  Be3  1  0.49999971  0.74999992  0.25231102  1.0
  H  H4  1  0.73481362  0.09989427  0.59751223  1.0
  H  H5  1  0.26518737  0.40010563  0.59751231  1.0
  H  H6  1  0.26518636  0.90010572  0.40248771  1.0
  H  H7  1  0.73481262  0.59989434  0.40248776  1.0
  H  H8  1  0.26798993  0.59911403  0.10079367  1.0
  H  H9  1  0.73200985  0.90088630  0.10079353  1.0
  H  H10  1  0.73201011  0.40088600  0.89920632  1.0
  H  H11  1  0.26799017  0.09911368  0.89920649  1.0
