# generated using pymatgen
data_SmCdBr4
_symmetry_space_group_name_H-M   'P 1'
_cell_length_a   7.74882067
_cell_length_b   7.07754925
_cell_length_c   7.09234465
_cell_angle_alpha   89.99998971
_cell_angle_beta   89.99982475
_cell_angle_gamma   94.79184794
_symmetry_Int_Tables_number   1
_chemical_formula_structural   SmCdBr4
_chemical_formula_sum   'Sm2 Cd2 Br8'
_cell_volume   387.60352449
_cell_formula_units_Z   2
loop_
 _symmetry_equiv_pos_site_id
 _symmetry_equiv_pos_as_xyz
  1  'x, y, z'
loop_
 _atom_site_type_symbol
 _atom_site_label
 _atom_site_symmetry_multiplicity
 _atom_site_fract_x
 _atom_site_fract_y
 _atom_site_fract_z
 _atom_site_occupancy
  Sm  Sm0  1  0.99999997  0.74999988  0.75218597  1.0
  Sm  Sm1  1  0.00000003  0.25000014  0.24782492  1.0
  Cd  Cd2  1  0.50000004  0.25000013  0.70988617  1.0
  Cd  Cd3  1  0.49999998  0.74999989  0.29011546  1.0
  Br  Br4  1  0.79003082  0.03599708  0.55603002  1.0
  Br  Br5  1  0.20996921  0.46400278  0.55602989  1.0
  Br  Br6  1  0.21008644  0.96398983  0.44396062  1.0
  Br  Br7  1  0.78991347  0.53601028  0.44396074  1.0
  Br  Br8  1  0.20951303  0.57381679  0.05775984  1.0
  Br  Br9  1  0.79048683  0.92618333  0.05775992  1.0
  Br  Br10  1  0.79067161  0.42618729  0.94224324  1.0
  Br  Br11  1  0.20932858  0.07381258  0.94224321  1.0
