# generated using pymatgen
data_SmCdCl4
_symmetry_space_group_name_H-M   'P 1'
_cell_length_a   7.89910192
_cell_length_b   6.80251675
_cell_length_c   7.13122139
_cell_angle_alpha   85.20089932
_cell_angle_beta   89.99999287
_cell_angle_gamma   90.00000161
_symmetry_Int_Tables_number   1
_chemical_formula_structural   SmCdCl4
_chemical_formula_sum   'Sm2 Cd2 Cl8'
_cell_volume   381.84404322
_cell_formula_units_Z   2
loop_
 _symmetry_equiv_pos_site_id
 _symmetry_equiv_pos_as_xyz
  1  'x, y, z'
loop_
 _atom_site_type_symbol
 _atom_site_label
 _atom_site_symmetry_multiplicity
 _atom_site_fract_x
 _atom_site_fract_y
 _atom_site_fract_z
 _atom_site_occupancy
  Sm  Sm0  1  0.15264715  0.99999999  0.24999998  1.0
  Sm  Sm1  1  0.84735303  0.00000002  0.75000000  1.0
  Cd  Cd2  1  0.65111062  0.49999995  0.25000000  1.0
  Cd  Cd3  1  0.34889743  0.50000001  0.75000003  1.0
  Cl  Cl4  1  0.10205147  0.78446244  0.94615212  1.0
  Cl  Cl5  1  0.10205141  0.21553763  0.55384781  1.0
  Cl  Cl6  1  0.89794951  0.21553465  0.05384749  1.0
  Cl  Cl7  1  0.89794961  0.78446527  0.44615257  1.0
  Cl  Cl8  1  0.38195796  0.74532104  0.39763773  1.0
  Cl  Cl9  1  0.38195797  0.25467904  0.10236226  1.0
  Cl  Cl10  1  0.61803692  0.25467768  0.60236908  1.0
  Cl  Cl11  1  0.61803692  0.74532229  0.89763092  1.0
