# generated using pymatgen
data_SmCuI4
_symmetry_space_group_name_H-M   'P 1'
_cell_length_a   7.41768675
_cell_length_b   7.56041679
_cell_length_c   9.20301833
_cell_angle_alpha   90.01554174
_cell_angle_beta   89.97734187
_cell_angle_gamma   75.59336262
_symmetry_Int_Tables_number   1
_chemical_formula_structural   SmCuI4
_chemical_formula_sum   'Sm2 Cu2 I8'
_cell_volume   499.88308607
_cell_formula_units_Z   2
loop_
 _symmetry_equiv_pos_site_id
 _symmetry_equiv_pos_as_xyz
  1  'x, y, z'
loop_
 _atom_site_type_symbol
 _atom_site_label
 _atom_site_symmetry_multiplicity
 _atom_site_fract_x
 _atom_site_fract_y
 _atom_site_fract_z
 _atom_site_occupancy
  Sm  Sm0  1  0.99999342  0.24994814  0.13666738  1.0
  Sm  Sm1  1  0.00000647  0.75005160  0.86335174  1.0
  Cu  Cu2  1  0.50000655  0.25000060  0.47926165  1.0
  Cu  Cu3  1  0.49999092  0.75000028  0.52072606  1.0
  I  I4  1  0.28458019  0.05746123  0.37655997  1.0
  I  I5  1  0.71541953  0.44251912  0.37655416  1.0
  I  I6  1  0.71544055  0.94251663  0.62344313  1.0
  I  I7  1  0.28456073  0.55750450  0.62344912  1.0
  I  I8  1  0.23921261  0.02673125  0.89127740  1.0
  I  I9  1  0.76072517  0.47328499  0.89123953  1.0
  I  I10  1  0.76075549  0.97329887  0.10871616  1.0
  I  I11  1  0.23930837  0.52668279  0.10875371  1.0
