# generated using pymatgen
data_SmH6Pd
_symmetry_space_group_name_H-M   'P 1'
_cell_length_a   6.55028001
_cell_length_b   6.55034269
_cell_length_c   6.55025072
_cell_angle_alpha   90.00579341
_cell_angle_beta   89.99667626
_cell_angle_gamma   90.00414600
_symmetry_Int_Tables_number   1
_chemical_formula_structural   SmH6Pd
_chemical_formula_sum   'Sm4 H24 Pd4'
_cell_volume   281.04884591
_cell_formula_units_Z   4
loop_
 _symmetry_equiv_pos_site_id
 _symmetry_equiv_pos_as_xyz
  1  'x, y, z'
loop_
 _atom_site_type_symbol
 _atom_site_label
 _atom_site_symmetry_multiplicity
 _atom_site_fract_x
 _atom_site_fract_y
 _atom_site_fract_z
 _atom_site_occupancy
  Sm  Sm0  1  0.00000657  0.99999109  0.00000632  1.0
  Sm  Sm1  1  0.50000065  0.99999133  0.49999390  1.0
  Sm  Sm2  1  0.49999709  0.50000853  0.00001006  1.0
  Sm  Sm3  1  0.00000053  0.50000523  0.49998917  1.0
  H  H4  1  0.67040691  0.41022027  0.66866111  1.0
  H  H5  1  0.17028496  0.08993683  0.33140725  1.0
  H  H6  1  0.32970861  0.91013042  0.83140720  1.0
  H  H7  1  0.08977340  0.33134119  0.17038809  1.0
  H  H8  1  0.83139844  0.32970500  0.91008442  1.0
  H  H9  1  0.33142289  0.17029748  0.08986640  1.0
  H  H10  1  0.41009462  0.66858793  0.67027756  1.0
  H  H11  1  0.66853965  0.67029987  0.41005245  1.0
  H  H12  1  0.17032960  0.41003884  0.83143968  1.0
  H  H13  1  0.83135237  0.17037991  0.41024341  1.0
  H  H14  1  0.41011678  0.83141645  0.17029315  1.0
  H  H15  1  0.08993427  0.16853807  0.67031923  1.0
  H  H16  1  0.33145684  0.32967790  0.58995461  1.0
  H  H17  1  0.58991533  0.33139060  0.32971471  1.0
  H  H18  1  0.66860028  0.82968850  0.91012461  1.0
  H  H19  1  0.16858787  0.67026323  0.08990161  1.0
  H  H20  1  0.91023238  0.66864109  0.82961028  1.0
  H  H21  1  0.67030681  0.08987162  0.16859355  1.0
  H  H22  1  0.82971967  0.91006015  0.66859720  1.0
  H  H23  1  0.32962334  0.58976281  0.33136366  1.0
  H  H24  1  0.82970159  0.58994177  0.16852756  1.0
  H  H25  1  0.16866428  0.82960682  0.58976361  1.0
  H  H26  1  0.58989779  0.16860008  0.82968271  1.0
  H  H27  1  0.91007449  0.83146671  0.32969419  1.0
  Pd  Pd28  1  0.49996494  0.50008042  0.49995227  1.0
  Pd  Pd29  1  0.99998632  0.50008983  0.00007622  1.0
  Pd  Pd30  1  0.99996883  0.99999825  0.49995771  1.0
  Pd  Pd31  1  0.49993190  0.99997179  0.00004608  1.0
