# generated using pymatgen
data_SmHCl4
_symmetry_space_group_name_H-M   'P 1'
_cell_length_a   9.07325722
_cell_length_b   6.96326965
_cell_length_c   8.16895170
_cell_angle_alpha   89.99996583
_cell_angle_beta   90.00001718
_cell_angle_gamma   136.79828648
_symmetry_Int_Tables_number   1
_chemical_formula_structural   SmHCl4
_chemical_formula_sum   'Sm2 H2 Cl8'
_cell_volume   353.31325756
_cell_formula_units_Z   2
loop_
 _symmetry_equiv_pos_site_id
 _symmetry_equiv_pos_as_xyz
  1  'x, y, z'
loop_
 _atom_site_type_symbol
 _atom_site_label
 _atom_site_symmetry_multiplicity
 _atom_site_fract_x
 _atom_site_fract_y
 _atom_site_fract_z
 _atom_site_occupancy
  Sm  Sm0  1  0.50000089  0.24999960  0.63832170  1.0
  Sm  Sm1  1  0.50000071  0.74999903  0.36167882  1.0
  H  H2  1  0.00000378  0.75000623  0.86809488  1.0
  H  H3  1  0.00000263  0.25000428  0.13190518  1.0
  Cl  Cl4  1  0.73130409  0.79674820  0.60351691  1.0
  Cl  Cl5  1  0.26869399  0.70324977  0.60351656  1.0
  Cl  Cl6  1  0.26869407  0.20324955  0.39648432  1.0
  Cl  Cl7  1  0.73130531  0.29674966  0.39648216  1.0
  Cl  Cl8  1  0.21044884  0.57296065  0.12369139  1.0
  Cl  Cl9  1  0.78954703  0.92703492  0.12369377  1.0
  Cl  Cl10  1  0.78954796  0.42703567  0.87630587  1.0
  Cl  Cl11  1  0.21045070  0.07296246  0.87630844  1.0
