# generated using pymatgen
data_SmMnF4
_symmetry_space_group_name_H-M   'P 1'
_cell_length_a   6.37504695
_cell_length_b   5.27591103
_cell_length_c   5.64160210
_cell_angle_alpha   93.14934951
_cell_angle_beta   89.99999972
_cell_angle_gamma   89.99999389
_symmetry_Int_Tables_number   1
_chemical_formula_structural   SmMnF4
_chemical_formula_sum   'Sm2 Mn2 F8'
_cell_volume   189.46408706
_cell_formula_units_Z   2
loop_
 _symmetry_equiv_pos_site_id
 _symmetry_equiv_pos_as_xyz
  1  'x, y, z'
loop_
 _atom_site_type_symbol
 _atom_site_label
 _atom_site_symmetry_multiplicity
 _atom_site_fract_x
 _atom_site_fract_y
 _atom_site_fract_z
 _atom_site_occupancy
  Sm  Sm0  1  0.36388475  0.49999995  0.75000001  1.0
  Sm  Sm1  1  0.63611524  0.50000004  0.24999998  1.0
  Mn  Mn2  1  0.85636937  0.00000005  0.75000009  1.0
  Mn  Mn3  1  0.14363063  0.99999995  0.24999991  1.0
  F  F4  1  0.10859580  0.21552073  0.59396847  1.0
  F  F5  1  0.89140423  0.21552083  0.09396842  1.0
  F  F6  1  0.63263241  0.22721905  0.58762190  1.0
  F  F7  1  0.36736759  0.22721906  0.08762210  1.0
  F  F8  1  0.63263240  0.77278095  0.91237790  1.0
  F  F9  1  0.36736760  0.77278097  0.41237809  1.0
  F  F10  1  0.10859576  0.78447916  0.90603158  1.0
  F  F11  1  0.89140420  0.78447925  0.40603153  1.0
