# generated using pymatgen
data_SmPbF4
_symmetry_space_group_name_H-M   'P 1'
_cell_length_a   6.74122135
_cell_length_b   5.45698709
_cell_length_c   5.52663595
_cell_angle_alpha   90.00000160
_cell_angle_beta   90.00002131
_cell_angle_gamma   93.55355883
_symmetry_Int_Tables_number   1
_chemical_formula_structural   SmPbF4
_chemical_formula_sum   'Sm2 Pb2 F8'
_cell_volume   202.91611925
_cell_formula_units_Z   2
loop_
 _symmetry_equiv_pos_site_id
 _symmetry_equiv_pos_as_xyz
  1  'x, y, z'
loop_
 _atom_site_type_symbol
 _atom_site_label
 _atom_site_symmetry_multiplicity
 _atom_site_fract_x
 _atom_site_fract_y
 _atom_site_fract_z
 _atom_site_occupancy
  Sm  Sm0  1  0.00000001  0.75000003  0.75345582  1.0
  Sm  Sm1  1  0.99999999  0.24999997  0.24654415  1.0
  Pb  Pb2  1  0.49999999  0.25000002  0.71155287  1.0
  Pb  Pb3  1  0.50000001  0.75000000  0.28844723  1.0
  F  F4  1  0.82033829  0.04974555  0.56081952  1.0
  F  F5  1  0.17966162  0.45025435  0.56081991  1.0
  F  F6  1  0.17966175  0.95025442  0.43918043  1.0
  F  F7  1  0.82033834  0.54974567  0.43918004  1.0
  F  F8  1  0.18167450  0.57814068  0.06405297  1.0
  F  F9  1  0.81832542  0.92185940  0.06405260  1.0
  F  F10  1  0.81832549  0.42185936  0.93594705  1.0
  F  F11  1  0.18167459  0.07814057  0.93594741  1.0
