# generated using pymatgen
data_SmSnBr4
_symmetry_space_group_name_H-M   'P 1'
_cell_length_a   7.22861540
_cell_length_b   7.66774728
_cell_length_c   8.44831923
_cell_angle_alpha   90.00001820
_cell_angle_beta   90.00002201
_cell_angle_gamma   104.87985317
_symmetry_Int_Tables_number   1
_chemical_formula_structural   SmSnBr4
_chemical_formula_sum   'Sm2 Sn2 Br8'
_cell_volume   452.56399632
_cell_formula_units_Z   2
loop_
 _symmetry_equiv_pos_site_id
 _symmetry_equiv_pos_as_xyz
  1  'x, y, z'
loop_
 _atom_site_type_symbol
 _atom_site_label
 _atom_site_symmetry_multiplicity
 _atom_site_fract_x
 _atom_site_fract_y
 _atom_site_fract_z
 _atom_site_occupancy
  Sm  Sm0  1  0.50000005  0.25000000  0.64438877  1.0
  Sm  Sm1  1  0.50000002  0.75000008  0.35561133  1.0
  Sn  Sn2  1  0.99999977  0.74999992  0.82201431  1.0
  Sn  Sn3  1  0.99999994  0.25000000  0.17798580  1.0
  Br  Br4  1  0.73015858  0.99481899  0.58843989  1.0
  Br  Br5  1  0.26984193  0.50518137  0.58843995  1.0
  Br  Br6  1  0.26984154  0.00518100  0.41156009  1.0
  Br  Br7  1  0.73015802  0.49481887  0.41156003  1.0
  Br  Br8  1  0.23732840  0.61298387  0.10556647  1.0
  Br  Br9  1  0.76267149  0.88701624  0.10556645  1.0
  Br  Br10  1  0.76267160  0.38701629  0.89443364  1.0
  Br  Br11  1  0.23732867  0.11298337  0.89443327  1.0
