# generated using pymatgen
data_SmSnCl4
_symmetry_space_group_name_H-M   'P 1'
_cell_length_a   7.03746901
_cell_length_b   7.45184390
_cell_length_c   8.08945097
_cell_angle_alpha   89.99857937
_cell_angle_beta   90.00247198
_cell_angle_gamma   107.87818668
_symmetry_Int_Tables_number   1
_chemical_formula_structural   SmSnCl4
_chemical_formula_sum   'Sm2 Sn2 Cl8'
_cell_volume   403.74256663
_cell_formula_units_Z   2
loop_
 _symmetry_equiv_pos_site_id
 _symmetry_equiv_pos_as_xyz
  1  'x, y, z'
loop_
 _atom_site_type_symbol
 _atom_site_label
 _atom_site_symmetry_multiplicity
 _atom_site_fract_x
 _atom_site_fract_y
 _atom_site_fract_z
 _atom_site_occupancy
  Sm  Sm0  1  0.50000121  0.24999580  0.64635672  1.0
  Sm  Sm1  1  0.49999882  0.75000422  0.35364335  1.0
  Sn  Sn2  1  0.00000738  0.74999721  0.78567550  1.0
  Sn  Sn3  1  0.99999287  0.25000286  0.21432444  1.0
  Cl  Cl4  1  0.74239387  0.04109886  0.54637093  1.0
  Cl  Cl5  1  0.25760609  0.45889667  0.54635958  1.0
  Cl  Cl6  1  0.25760601  0.95890107  0.45362920  1.0
  Cl  Cl7  1  0.74239374  0.54110327  0.45364038  1.0
  Cl  Cl8  1  0.23261269  0.62034930  0.11500505  1.0
  Cl  Cl9  1  0.76737597  0.87965935  0.11501521  1.0
  Cl  Cl10  1  0.76738736  0.37965073  0.88499485  1.0
  Cl  Cl11  1  0.23262400  0.12034066  0.88498480  1.0
