# generated using pymatgen
data_SmTlBr4
_symmetry_space_group_name_H-M   'P 1'
_cell_length_a   7.59640754
_cell_length_b   7.62731456
_cell_length_c   8.43084358
_cell_angle_alpha   90.00002304
_cell_angle_beta   89.99999727
_cell_angle_gamma   95.66975030
_symmetry_Int_Tables_number   1
_chemical_formula_structural   SmTlBr4
_chemical_formula_sum   'Sm2 Tl2 Br8'
_cell_volume   486.09494587
_cell_formula_units_Z   2
loop_
 _symmetry_equiv_pos_site_id
 _symmetry_equiv_pos_as_xyz
  1  'x, y, z'
loop_
 _atom_site_type_symbol
 _atom_site_label
 _atom_site_symmetry_multiplicity
 _atom_site_fract_x
 _atom_site_fract_y
 _atom_site_fract_z
 _atom_site_occupancy
  Sm  Sm0  1  0.49999990  0.24999986  0.65218107  1.0
  Sm  Sm1  1  0.49999993  0.75000016  0.34781895  1.0
  Tl  Tl2  1  0.99999997  0.75000002  0.82977036  1.0
  Tl  Tl3  1  0.00000006  0.25000004  0.17022958  1.0
  Br  Br4  1  0.71246677  0.95991281  0.58896995  1.0
  Br  Br5  1  0.28753307  0.54008706  0.58896994  1.0
  Br  Br6  1  0.28753323  0.04008721  0.41103001  1.0
  Br  Br7  1  0.71246675  0.45991280  0.41102996  1.0
  Br  Br8  1  0.25610091  0.62081838  0.11859504  1.0
  Br  Br9  1  0.74389927  0.87918176  0.11859502  1.0
  Br  Br10  1  0.74389915  0.37918180  0.88140500  1.0
  Br  Br11  1  0.25610099  0.12081811  0.88140513  1.0
