# generated using pymatgen
data_SmTmCl4
_symmetry_space_group_name_H-M   'P 1'
_cell_length_a   7.14957332
_cell_length_b   6.42279813
_cell_length_c   6.64385141
_cell_angle_alpha   89.99941087
_cell_angle_beta   90.00043808
_cell_angle_gamma   103.97515119
_symmetry_Int_Tables_number   1
_chemical_formula_structural   SmTmCl4
_chemical_formula_sum   'Sm2 Tm2 Cl8'
_cell_volume   296.05700653
_cell_formula_units_Z   2
loop_
 _symmetry_equiv_pos_site_id
 _symmetry_equiv_pos_as_xyz
  1  'x, y, z'
loop_
 _atom_site_type_symbol
 _atom_site_label
 _atom_site_symmetry_multiplicity
 _atom_site_fract_x
 _atom_site_fract_y
 _atom_site_fract_z
 _atom_site_occupancy
  Sm  Sm0  1  0.49999982  0.25000782  0.61377938  1.0
  Sm  Sm1  1  0.50000032  0.74999267  0.38622083  1.0
  Tm  Tm2  1  0.99998777  0.74999661  0.76727709  1.0
  Tm  Tm3  1  0.00001167  0.25000321  0.23272284  1.0
  Cl  Cl4  1  0.80973204  0.02893858  0.58212951  1.0
  Cl  Cl5  1  0.19026718  0.47106724  0.58213628  1.0
  Cl  Cl6  1  0.19026814  0.97106185  0.41787040  1.0
  Cl  Cl7  1  0.80973282  0.52893295  0.41786357  1.0
  Cl  Cl8  1  0.22419031  0.60348657  0.06741370  1.0
  Cl  Cl9  1  0.77581050  0.89651605  0.06741656  1.0
  Cl  Cl10  1  0.77580987  0.39651288  0.93258639  1.0
  Cl  Cl11  1  0.22418955  0.10348356  0.93258345  1.0
