# generated using pymatgen
data_SnClF
_symmetry_space_group_name_H-M   'P 1'
_cell_length_a   4.61389123
_cell_length_b   4.61388769
_cell_length_c   4.61389064
_cell_angle_alpha   59.99997056
_cell_angle_beta   59.99998906
_cell_angle_gamma   59.99997355
_symmetry_Int_Tables_number   1
_chemical_formula_structural   SnClF
_chemical_formula_sum   'Sn1 Cl1 F1'
_cell_volume   69.45227085
_cell_formula_units_Z   1
loop_
 _symmetry_equiv_pos_site_id
 _symmetry_equiv_pos_as_xyz
  1  'x, y, z'
loop_
 _atom_site_type_symbol
 _atom_site_label
 _atom_site_symmetry_multiplicity
 _atom_site_fract_x
 _atom_site_fract_y
 _atom_site_fract_z
 _atom_site_occupancy
  Sn  Sn0  1  0.49999990  0.50000021  0.49999979  1.0
  Cl  Cl1  1  0.74999994  0.74999950  0.75000041  1.0
  F  F2  1  0.00000015  0.00000029  0.99999980  1.0
