# generated using pymatgen
data_SnGeF4
_symmetry_space_group_name_H-M   'P 1'
_cell_length_a   6.56734700
_cell_length_b   5.47535548
_cell_length_c   5.81103837
_cell_angle_alpha   90.80214100
_cell_angle_beta   89.99991727
_cell_angle_gamma   89.99999107
_symmetry_Int_Tables_number   1
_chemical_formula_structural   SnGeF4
_chemical_formula_sum   'Sn2 Ge2 F8'
_cell_volume   208.93609091
_cell_formula_units_Z   2
loop_
 _symmetry_equiv_pos_site_id
 _symmetry_equiv_pos_as_xyz
  1  'x, y, z'
loop_
 _atom_site_type_symbol
 _atom_site_label
 _atom_site_symmetry_multiplicity
 _atom_site_fract_x
 _atom_site_fract_y
 _atom_site_fract_z
 _atom_site_occupancy
  Sn  Sn0  1  0.81837954  0.99999899  0.75000031  1.0
  Sn  Sn1  1  0.18161303  0.00000103  0.24999970  1.0
  Ge  Ge2  1  0.33245133  0.50000055  0.74999899  1.0
  Ge  Ge3  1  0.66754249  0.49999947  0.25000103  1.0
  F  F4  1  0.12259601  0.24717729  0.59793749  1.0
  F  F5  1  0.87740899  0.24715940  0.09794200  1.0
  F  F6  1  0.60690539  0.27138387  0.56690044  1.0
  F  F7  1  0.39309748  0.27139284  0.06691217  1.0
  F  F8  1  0.60690599  0.72861756  0.93309738  1.0
  F  F9  1  0.39309813  0.72860573  0.43308996  1.0
  F  F10  1  0.12259434  0.75282446  0.90205956  1.0
  F  F11  1  0.87740727  0.75283882  0.40206098  1.0
