# generated using pymatgen
data_SrCdI4
_symmetry_space_group_name_H-M   'P 1'
_cell_length_a   8.74855735
_cell_length_b   7.38425833
_cell_length_c   7.95830280
_cell_angle_alpha   86.25451764
_cell_angle_beta   89.99999924
_cell_angle_gamma   90.00000020
_symmetry_Int_Tables_number   1
_chemical_formula_structural   SrCdI4
_chemical_formula_sum   'Sr2 Cd2 I8'
_cell_volume   513.02103484
_cell_formula_units_Z   2
loop_
 _symmetry_equiv_pos_site_id
 _symmetry_equiv_pos_as_xyz
  1  'x, y, z'
loop_
 _atom_site_type_symbol
 _atom_site_label
 _atom_site_symmetry_multiplicity
 _atom_site_fract_x
 _atom_site_fract_y
 _atom_site_fract_z
 _atom_site_occupancy
  Sr  Sr0  1  0.66400860  0.50000001  0.25000000  1.0
  Sr  Sr1  1  0.33599139  0.49999999  0.75000000  1.0
  Cd  Cd2  1  0.13753106  0.99999999  0.25000000  1.0
  Cd  Cd3  1  0.86246895  0.00000001  0.74999999  1.0
  I  I4  1  0.10022191  0.77138710  0.94476196  1.0
  I  I5  1  0.10022191  0.22861289  0.55523803  1.0
  I  I6  1  0.89977809  0.22861289  0.05523804  1.0
  I  I7  1  0.89977809  0.77138710  0.44476197  1.0
  I  I8  1  0.38709852  0.75602734  0.40271820  1.0
  I  I9  1  0.38709852  0.24397267  0.09728182  1.0
  I  I10  1  0.61290148  0.24397267  0.59728182  1.0
  I  I11  1  0.61290147  0.75602733  0.90271818  1.0
