# generated using pymatgen
data_SrCdH4
_symmetry_space_group_name_H-M   'P 1'
_cell_length_a   5.71324111
_cell_length_b   5.31392034
_cell_length_c   5.80266531
_cell_angle_alpha   78.27806144
_cell_angle_beta   90.00001611
_cell_angle_gamma   89.99995189
_symmetry_Int_Tables_number   1
_chemical_formula_structural   SrCdH4
_chemical_formula_sum   'Sr2 Cd2 H8'
_cell_volume   172.49327390
_cell_formula_units_Z   2
loop_
 _symmetry_equiv_pos_site_id
 _symmetry_equiv_pos_as_xyz
  1  'x, y, z'
loop_
 _atom_site_type_symbol
 _atom_site_label
 _atom_site_symmetry_multiplicity
 _atom_site_fract_x
 _atom_site_fract_y
 _atom_site_fract_z
 _atom_site_occupancy
  Sr  Sr0  1  0.74218730  0.50000009  0.24999999  1.0
  Sr  Sr1  1  0.25781270  0.49999991  0.75000001  1.0
  Cd  Cd2  1  0.18570222  0.00000039  0.25000015  1.0
  Cd  Cd3  1  0.81429778  0.99999961  0.74999985  1.0
  H  H4  1  0.05393834  0.77418004  0.97208044  1.0
  H  H5  1  0.05393866  0.22581994  0.52791924  1.0
  H  H6  1  0.94606166  0.22581996  0.02791956  1.0
  H  H7  1  0.94606135  0.77418006  0.47208076  1.0
  H  H8  1  0.40565893  0.73788021  0.37834627  1.0
  H  H9  1  0.40565926  0.26211990  0.12165377  1.0
  H  H10  1  0.59434107  0.26211979  0.62165373  1.0
  H  H11  1  0.59434074  0.73788010  0.87834623  1.0
