# generated using pymatgen
data_SrCoF4
_symmetry_space_group_name_H-M   'P 1'
_cell_length_a   5.30656125
_cell_length_b   5.72595909
_cell_length_c   6.02601919
_cell_angle_alpha   90.00044516
_cell_angle_beta   90.00006043
_cell_angle_gamma   95.79982045
_symmetry_Int_Tables_number   1
_chemical_formula_structural   SrCoF4
_chemical_formula_sum   'Sr2 Co2 F8'
_cell_volume   182.16422084
_cell_formula_units_Z   2
loop_
 _symmetry_equiv_pos_site_id
 _symmetry_equiv_pos_as_xyz
  1  'x, y, z'
loop_
 _atom_site_type_symbol
 _atom_site_label
 _atom_site_symmetry_multiplicity
 _atom_site_fract_x
 _atom_site_fract_y
 _atom_site_fract_z
 _atom_site_occupancy
  Sr  Sr0  1  0.00000052  0.25000124  0.20191616  1.0
  Sr  Sr1  1  0.99999928  0.74999850  0.79808380  1.0
  Co  Co2  1  0.49999842  0.25000141  0.65178669  1.0
  Co  Co3  1  0.50000152  0.74999883  0.34821332  1.0
  F  F4  1  0.70775333  0.45591228  0.41338461  1.0
  F  F5  1  0.29225336  0.04409264  0.41337672  1.0
  F  F6  1  0.29224685  0.54408776  0.58661566  1.0
  F  F7  1  0.70774686  0.95590745  0.58662302  1.0
  F  F8  1  0.75571225  0.88002656  0.12191889  1.0
  F  F9  1  0.24429044  0.61997361  0.12191710  1.0
  F  F10  1  0.24428766  0.11997340  0.87808097  1.0
  F  F11  1  0.75570950  0.38002632  0.87808306  1.0
