# generated using pymatgen
data_SrEuH4
_symmetry_space_group_name_H-M   'P 1'
_cell_length_a   5.75008068
_cell_length_b   5.72781261
_cell_length_c   5.73180309
_cell_angle_alpha   89.99998529
_cell_angle_beta   90.00000652
_cell_angle_gamma   90.09495466
_symmetry_Int_Tables_number   1
_chemical_formula_structural   SrEuH4
_chemical_formula_sum   'Sr2 Eu2 H8'
_cell_volume   188.77888013
_cell_formula_units_Z   2
loop_
 _symmetry_equiv_pos_site_id
 _symmetry_equiv_pos_as_xyz
  1  'x, y, z'
loop_
 _atom_site_type_symbol
 _atom_site_label
 _atom_site_symmetry_multiplicity
 _atom_site_fract_x
 _atom_site_fract_y
 _atom_site_fract_z
 _atom_site_occupancy
  Sr  Sr0  1  0.00000018  0.75000029  0.74975378  1.0
  Sr  Sr1  1  0.00000012  0.25000021  0.25024656  1.0
  Eu  Eu2  1  0.50000006  0.25000010  0.75021035  1.0
  Eu  Eu3  1  0.50000014  0.75000011  0.24978961  1.0
  H  H4  1  0.74057121  0.00316205  0.50331379  1.0
  H  H5  1  0.25942766  0.49683933  0.50331306  1.0
  H  H6  1  0.25942712  0.99684010  0.49668807  1.0
  H  H7  1  0.74057199  0.50316114  0.49668664  1.0
  H  H8  1  0.25861010  0.50278669  0.00348413  1.0
  H  H9  1  0.74139187  0.99721226  0.00348544  1.0
  H  H10  1  0.74139135  0.49721207  0.99651406  1.0
  H  H11  1  0.25861119  0.00278666  0.99651651  1.0
