# generated using pymatgen
data_SrGeBr4
_symmetry_space_group_name_H-M   'P 1'
_cell_length_a   8.20023235
_cell_length_b   6.89021580
_cell_length_c   7.42537068
_cell_angle_alpha   93.15952237
_cell_angle_beta   89.99999050
_cell_angle_gamma   90.00000168
_symmetry_Int_Tables_number   1
_chemical_formula_structural   SrGeBr4
_chemical_formula_sum   'Sr2 Ge2 Br8'
_cell_volume   418.90589309
_cell_formula_units_Z   2
loop_
 _symmetry_equiv_pos_site_id
 _symmetry_equiv_pos_as_xyz
  1  'x, y, z'
loop_
 _atom_site_type_symbol
 _atom_site_label
 _atom_site_symmetry_multiplicity
 _atom_site_fract_x
 _atom_site_fract_y
 _atom_site_fract_z
 _atom_site_occupancy
  Sr  Sr0  1  0.83606579  0.00000003  0.74999997  1.0
  Sr  Sr1  1  0.16393303  0.99999999  0.25000002  1.0
  Ge  Ge2  1  0.36153617  0.49999999  0.75000017  1.0
  Ge  Ge3  1  0.63846859  0.49999995  0.24999983  1.0
  Br  Br4  1  0.11546910  0.24713548  0.59883364  1.0
  Br  Br5  1  0.88452947  0.24713607  0.09883398  1.0
  Br  Br6  1  0.59904551  0.27386450  0.55932098  1.0
  Br  Br7  1  0.40095409  0.27386432  0.05932204  1.0
  Br  Br8  1  0.59904554  0.72613552  0.94067905  1.0
  Br  Br9  1  0.40095413  0.72613570  0.44067793  1.0
  Br  Br10  1  0.11546911  0.75286453  0.90116637  1.0
  Br  Br11  1  0.88452948  0.75286392  0.40116602  1.0
