# generated using pymatgen
data_SrMnI4
_symmetry_space_group_name_H-M   'P 1'
_cell_length_a   8.66879611
_cell_length_b   7.24841953
_cell_length_c   7.76037328
_cell_angle_alpha   86.85465578
_cell_angle_beta   90.00000114
_cell_angle_gamma   90.00001801
_symmetry_Int_Tables_number   1
_chemical_formula_structural   SrMnI4
_chemical_formula_sum   'Sr2 Mn2 I8'
_cell_volume   486.88903020
_cell_formula_units_Z   2
loop_
 _symmetry_equiv_pos_site_id
 _symmetry_equiv_pos_as_xyz
  1  'x, y, z'
loop_
 _atom_site_type_symbol
 _atom_site_label
 _atom_site_symmetry_multiplicity
 _atom_site_fract_x
 _atom_site_fract_y
 _atom_site_fract_z
 _atom_site_occupancy
  Sr  Sr0  1  0.34078172  0.50000030  0.74999989  1.0
  Sr  Sr1  1  0.65921836  0.49999962  0.24999994  1.0
  Mn  Mn2  1  0.87103204  0.00000003  0.74999992  1.0
  Mn  Mn3  1  0.12896786  0.99999982  0.25000024  1.0
  I  I4  1  0.10012376  0.77872382  0.94492945  1.0
  I  I5  1  0.89987607  0.77872382  0.44492947  1.0
  I  I6  1  0.62581210  0.76092667  0.89577332  1.0
  I  I7  1  0.37418822  0.76092665  0.39577289  1.0
  I  I8  1  0.62581194  0.23907351  0.60422702  1.0
  I  I9  1  0.37418785  0.23907345  0.10422675  1.0
  I  I10  1  0.10012378  0.22127615  0.55507062  1.0
  I  I11  1  0.89987631  0.22127617  0.05507050  1.0
