# generated using pymatgen
data_SrSmH4
_symmetry_space_group_name_H-M   'P 1'
_cell_length_a   5.66761440
_cell_length_b   5.55087336
_cell_length_c   5.55470292
_cell_angle_alpha   90.00000010
_cell_angle_beta   90.00000019
_cell_angle_gamma   90.10739954
_symmetry_Int_Tables_number   1
_chemical_formula_structural   SrSmH4
_chemical_formula_sum   'Sr2 Sm2 H8'
_cell_volume   174.75181216
_cell_formula_units_Z   2
loop_
 _symmetry_equiv_pos_site_id
 _symmetry_equiv_pos_as_xyz
  1  'x, y, z'
loop_
 _atom_site_type_symbol
 _atom_site_label
 _atom_site_symmetry_multiplicity
 _atom_site_fract_x
 _atom_site_fract_y
 _atom_site_fract_z
 _atom_site_occupancy
  Sr  Sr0  1  0.49999998  0.24999999  0.74954438  1.0
  Sr  Sr1  1  0.49999999  0.75000000  0.25045559  1.0
  Sm  Sm2  1  0.00000000  0.75000000  0.75024581  1.0
  Sm  Sm3  1  0.00000000  0.25000000  0.24975420  1.0
  H  H4  1  0.77309636  0.00160535  0.50219287  1.0
  H  H5  1  0.22690365  0.49839465  0.50219286  1.0
  H  H6  1  0.22690365  0.99839465  0.49780714  1.0
  H  H7  1  0.77309636  0.50160535  0.49780714  1.0
  H  H8  1  0.22783845  0.50034859  0.00097418  1.0
  H  H9  1  0.77216155  0.99965141  0.00097418  1.0
  H  H10  1  0.77216155  0.49965141  0.99902583  1.0
  H  H11  1  0.22783845  0.00034859  0.99902583  1.0
