# generated using pymatgen
data_SrSmCl4
_symmetry_space_group_name_H-M   'P 1'
_cell_length_a   6.82756767
_cell_length_b   6.96165434
_cell_length_c   6.95972916
_cell_angle_alpha   89.99945295
_cell_angle_beta   89.99999973
_cell_angle_gamma   89.86347111
_symmetry_Int_Tables_number   1
_chemical_formula_structural   SrSmCl4
_chemical_formula_sum   'Sr2 Sm2 Cl8'
_cell_volume   330.80310354
_cell_formula_units_Z   2
loop_
 _symmetry_equiv_pos_site_id
 _symmetry_equiv_pos_as_xyz
  1  'x, y, z'
loop_
 _atom_site_type_symbol
 _atom_site_label
 _atom_site_symmetry_multiplicity
 _atom_site_fract_x
 _atom_site_fract_y
 _atom_site_fract_z
 _atom_site_occupancy
  Sr  Sr0  1  0.50000014  0.24999992  0.75013347  1.0
  Sr  Sr1  1  0.49999996  0.75000066  0.24986608  1.0
  Sm  Sm2  1  0.99999996  0.74999962  0.74996552  1.0
  Sm  Sm3  1  0.00000011  0.24999983  0.25003494  1.0
  Cl  Cl4  1  0.76202118  0.99902937  0.49838204  1.0
  Cl  Cl5  1  0.23797681  0.50097070  0.49838148  1.0
  Cl  Cl6  1  0.23797876  0.00097466  0.50161379  1.0
  Cl  Cl7  1  0.76202308  0.49902533  0.50161366  1.0
  Cl  Cl8  1  0.23845536  0.49859757  0.99873128  1.0
  Cl  Cl9  1  0.76154662  0.00140134  0.99873040  1.0
  Cl  Cl10  1  0.76154430  0.50139761  0.00127351  1.0
  Cl  Cl11  1  0.23845372  0.99860338  0.00127383  1.0
