# generated using pymatgen
data_SrTmO2
_symmetry_space_group_name_H-M   'P 1'
_cell_length_a   3.38267132
_cell_length_b   3.39562340
_cell_length_c   6.50980000
_cell_angle_alpha   88.67841325
_cell_angle_beta   89.84312989
_cell_angle_gamma   119.90175262
_symmetry_Int_Tables_number   1
_chemical_formula_structural   SrTmO2
_chemical_formula_sum   'Sr1 Tm1 O2'
_cell_volume   64.79366720
_cell_formula_units_Z   1
loop_
 _symmetry_equiv_pos_site_id
 _symmetry_equiv_pos_as_xyz
  1  'x, y, z'
loop_
 _atom_site_type_symbol
 _atom_site_label
 _atom_site_symmetry_multiplicity
 _atom_site_fract_x
 _atom_site_fract_y
 _atom_site_fract_z
 _atom_site_occupancy
  Sr  Sr0  1  0.00024968  0.00025410  0.00000474  1.0
  Tm  Tm1  1  0.99989795  0.99989831  0.50000064  1.0
  O  O2  1  0.66104826  0.32384264  0.68338137  1.0
  O  O3  1  0.33880411  0.67600495  0.31661326  1.0
