# generated using pymatgen
data_SrTmI4
_symmetry_space_group_name_H-M   'P 1'
_cell_length_a   7.50662953
_cell_length_b   7.67420957
_cell_length_c   8.92710672
_cell_angle_alpha   89.99397208
_cell_angle_beta   90.00217376
_cell_angle_gamma   92.81150333
_symmetry_Int_Tables_number   1
_chemical_formula_structural   SrTmI4
_chemical_formula_sum   'Sr2 Tm2 I8'
_cell_volume   513.64881537
_cell_formula_units_Z   2
loop_
 _symmetry_equiv_pos_site_id
 _symmetry_equiv_pos_as_xyz
  1  'x, y, z'
loop_
 _atom_site_type_symbol
 _atom_site_label
 _atom_site_symmetry_multiplicity
 _atom_site_fract_x
 _atom_site_fract_y
 _atom_site_fract_z
 _atom_site_occupancy
  Sr  Sr0  1  0.99999828  0.75000637  0.86370006  1.0
  Sr  Sr1  1  0.00000174  0.24999362  0.13629998  1.0
  Tm  Tm2  1  0.50000529  0.74995968  0.39574637  1.0
  Tm  Tm3  1  0.49999467  0.25004032  0.60425363  1.0
  I  I4  1  0.73655607  0.40058561  0.86965801  1.0
  I  I5  1  0.26344395  0.59941438  0.13034196  1.0
  I  I6  1  0.26344274  0.09942079  0.86965835  1.0
  I  I7  1  0.73655727  0.90057922  0.13034166  1.0
  I  I8  1  0.73958868  0.93837747  0.61914103  1.0
  I  I9  1  0.26041132  0.06162250  0.38085895  1.0
  I  I10  1  0.26038122  0.56163898  0.61915496  1.0
  I  I11  1  0.73961879  0.43836105  0.38084503  1.0
