# generated using pymatgen
data_TaCl4F
_symmetry_space_group_name_H-M   'P 1'
_cell_length_a   6.39786181
_cell_length_b   6.21048525
_cell_length_c   7.50022901
_cell_angle_alpha   89.99989876
_cell_angle_beta   89.99992648
_cell_angle_gamma   96.34085341
_symmetry_Int_Tables_number   1
_chemical_formula_structural   TaCl4F
_chemical_formula_sum   'Ta2 Cl8 F2'
_cell_volume   296.18969205
_cell_formula_units_Z   2
loop_
 _symmetry_equiv_pos_site_id
 _symmetry_equiv_pos_as_xyz
  1  'x, y, z'
loop_
 _atom_site_type_symbol
 _atom_site_label
 _atom_site_symmetry_multiplicity
 _atom_site_fract_x
 _atom_site_fract_y
 _atom_site_fract_z
 _atom_site_occupancy
  Ta  Ta0  1  0.50003696  0.25001374  0.65908513  1.0
  Ta  Ta1  1  0.50003690  0.75001255  0.34099764  1.0
  Cl  Cl2  1  0.70481755  0.95136625  0.60727842  1.0
  Cl  Cl3  1  0.29517574  0.54863628  0.60727803  1.0
  Cl  Cl4  1  0.29517243  0.04864143  0.39270674  1.0
  Cl  Cl5  1  0.70481965  0.45136217  0.39270628  1.0
  Cl  Cl6  1  0.25537803  0.60362229  0.15542213  1.0
  Cl  Cl7  1  0.74459201  0.89636016  0.15544071  1.0
  Cl  Cl8  1  0.74453034  0.39632508  0.84451652  1.0
  Cl  Cl9  1  0.25544028  0.10365783  0.84453507  1.0
  F  F10  1  0.99999978  0.75000091  0.82202035  1.0
  F  F11  1  0.00000034  0.25000130  0.17801297  1.0
