# generated using pymatgen
data_TaH3O4
_symmetry_space_group_name_H-M   'P 1'
_cell_length_a   4.96468189
_cell_length_b   4.96468067
_cell_length_c   4.96468216
_cell_angle_alpha   89.99727869
_cell_angle_beta   90.00166408
_cell_angle_gamma   90.00275016
_symmetry_Int_Tables_number   1
_chemical_formula_structural   TaH3O4
_chemical_formula_sum   'Ta2 H6 O8'
_cell_volume   122.36978448
_cell_formula_units_Z   2
loop_
 _symmetry_equiv_pos_site_id
 _symmetry_equiv_pos_as_xyz
  1  'x, y, z'
loop_
 _atom_site_type_symbol
 _atom_site_label
 _atom_site_symmetry_multiplicity
 _atom_site_fract_x
 _atom_site_fract_y
 _atom_site_fract_z
 _atom_site_occupancy
  Ta  Ta0  1  0.50000505  0.50000741  0.50000065  1.0
  Ta  Ta1  1  0.99998179  0.00000154  0.00001260  1.0
  H  H2  1  0.99999355  0.49999801  0.24999700  1.0
  H  H3  1  0.99999604  0.50000381  0.74999654  1.0
  H  H4  1  0.75000313  0.99999815  0.49999552  1.0
  H  H5  1  0.50000943  0.24999812  0.00000198  1.0
  H  H6  1  0.25000326  0.99999684  0.49999614  1.0
  H  H7  1  0.50000514  0.74999791  0.00000228  1.0
  O  O8  1  0.77728479  0.77729362  0.77727654  1.0
  O  O9  1  0.72272308  0.27729349  0.72272005  1.0
  O  O10  1  0.27727663  0.72271851  0.72271763  1.0
  O  O11  1  0.72270457  0.72271210  0.27727908  1.0
  O  O12  1  0.27728177  0.27727103  0.27728965  1.0
  O  O13  1  0.22273039  0.22272032  0.77728505  1.0
  O  O14  1  0.22271236  0.77727519  0.22271572  1.0
  O  O15  1  0.77728903  0.22271394  0.22271356  1.0
