# generated using pymatgen
data_TbCuBr4
_symmetry_space_group_name_H-M   'P 1'
_cell_length_a   7.00694941
_cell_length_b   7.15425708
_cell_length_c   8.39003517
_cell_angle_alpha   89.99981438
_cell_angle_beta   90.00080483
_cell_angle_gamma   71.50968046
_symmetry_Int_Tables_number   1
_chemical_formula_structural   TbCuBr4
_chemical_formula_sum   'Tb2 Cu2 Br8'
_cell_volume   398.87648455
_cell_formula_units_Z   2
loop_
 _symmetry_equiv_pos_site_id
 _symmetry_equiv_pos_as_xyz
  1  'x, y, z'
loop_
 _atom_site_type_symbol
 _atom_site_label
 _atom_site_symmetry_multiplicity
 _atom_site_fract_x
 _atom_site_fract_y
 _atom_site_fract_z
 _atom_site_occupancy
  Tb  Tb0  1  0.99999944  0.25000234  0.13637167  1.0
  Tb  Tb1  1  0.00000053  0.74999760  0.86362141  1.0
  Cu  Cu2  1  0.50000028  0.25000030  0.57299035  1.0
  Cu  Cu3  1  0.50000027  0.74999989  0.42744187  1.0
  Br  Br4  1  0.27029979  0.06645825  0.38522756  1.0
  Br  Br5  1  0.72970057  0.43354071  0.38522741  1.0
  Br  Br6  1  0.72962812  0.93347934  0.61467065  1.0
  Br  Br7  1  0.27037131  0.56652144  0.61467090  1.0
  Br  Br8  1  0.23364944  0.00457641  0.89685974  1.0
  Br  Br9  1  0.76635056  0.49542415  0.89685952  1.0
  Br  Br10  1  0.76629616  0.99545798  0.10302931  1.0
  Br  Br11  1  0.23370352  0.50454158  0.10302960  1.0
