# generated using pymatgen
data_TbCuI4
_symmetry_space_group_name_H-M   'P 1'
_cell_length_a   7.36606973
_cell_length_b   7.52191901
_cell_length_c   9.00974304
_cell_angle_alpha   89.99952741
_cell_angle_beta   89.99968887
_cell_angle_gamma   75.70652618
_symmetry_Int_Tables_number   1
_chemical_formula_structural   TbCuI4
_chemical_formula_sum   'Tb2 Cu2 I8'
_cell_volume   483.74926417
_cell_formula_units_Z   2
loop_
 _symmetry_equiv_pos_site_id
 _symmetry_equiv_pos_as_xyz
  1  'x, y, z'
loop_
 _atom_site_type_symbol
 _atom_site_label
 _atom_site_symmetry_multiplicity
 _atom_site_fract_x
 _atom_site_fract_y
 _atom_site_fract_z
 _atom_site_occupancy
  Tb  Tb0  1  0.00000531  0.25000004  0.13459901  1.0
  Tb  Tb1  1  0.99999454  0.75000012  0.86539753  1.0
  Cu  Cu2  1  0.49994038  0.25002939  0.48171524  1.0
  Cu  Cu3  1  0.50005900  0.74997088  0.51822198  1.0
  I  I4  1  0.27990665  0.05893236  0.37630672  1.0
  I  I5  1  0.72008641  0.44103177  0.37631596  1.0
  I  I6  1  0.72007774  0.94105726  0.62370994  1.0
  I  I7  1  0.27992946  0.55897899  0.62370036  1.0
  I  I8  1  0.23715209  0.02443406  0.88934359  1.0
  I  I9  1  0.76284806  0.47556920  0.88935261  1.0
  I  I10  1  0.76285882  0.97555704  0.11067357  1.0
  I  I11  1  0.23714154  0.52443889  0.11066350  1.0
