# generated using pymatgen
data_TbI2Br
_symmetry_space_group_name_H-M   'P 1'
_cell_length_a   7.58080268
_cell_length_b   7.58076766
_cell_length_c   7.68502806
_cell_angle_alpha   74.42292931
_cell_angle_beta   74.41945397
_cell_angle_gamma   53.04276557
_symmetry_Int_Tables_number   1
_chemical_formula_structural   TbI2Br
_chemical_formula_sum   'Tb2 I4 Br2'
_cell_volume   336.64014398
_cell_formula_units_Z   2
loop_
 _symmetry_equiv_pos_site_id
 _symmetry_equiv_pos_as_xyz
  1  'x, y, z'
loop_
 _atom_site_type_symbol
 _atom_site_label
 _atom_site_symmetry_multiplicity
 _atom_site_fract_x
 _atom_site_fract_y
 _atom_site_fract_z
 _atom_site_occupancy
  Tb  Tb0  1  0.31355647  0.68644560  0.74999551  1.0
  Tb  Tb1  1  0.68644359  0.31355440  0.25000421  1.0
  I  I2  1  0.34460862  0.34223717  0.58335299  1.0
  I  I3  1  0.65539145  0.65776274  0.41664679  1.0
  I  I4  1  0.34223240  0.34460819  0.08335716  1.0
  I  I5  1  0.65776749  0.65539188  0.91664264  1.0
  Br  Br6  1  0.00000001  0.00000009  0.99999983  1.0
  Br  Br7  1  0.99999997  0.99999994  0.49999986  1.0
