# generated using pymatgen
data_TbSeI2
_symmetry_space_group_name_H-M   'P 1'
_cell_length_a   8.34574634
_cell_length_b   8.35151302
_cell_length_c   11.23973649
_cell_angle_alpha   71.16386786
_cell_angle_beta   71.15182502
_cell_angle_gamma   29.95015088
_symmetry_Int_Tables_number   1
_chemical_formula_structural   TbSeI2
_chemical_formula_sum   'Tb2 Se2 I4'
_cell_volume   368.60798002
_cell_formula_units_Z   2
loop_
 _symmetry_equiv_pos_site_id
 _symmetry_equiv_pos_as_xyz
  1  'x, y, z'
loop_
 _atom_site_type_symbol
 _atom_site_label
 _atom_site_symmetry_multiplicity
 _atom_site_fract_x
 _atom_site_fract_y
 _atom_site_fract_z
 _atom_site_occupancy
  Tb  Tb0  1  0.00004978  0.00004955  0.99995099  1.0
  Tb  Tb1  1  0.99996057  0.99994718  0.50004393  1.0
  Se  Se2  1  0.01048093  0.98952702  0.74996446  1.0
  Se  Se3  1  0.98953716  0.01045490  0.25003751  1.0
  I  I4  1  0.35828207  0.35520066  0.56965308  1.0
  I  I5  1  0.64175958  0.64487495  0.43031014  1.0
  I  I6  1  0.35549113  0.35784823  0.06969611  1.0
  I  I7  1  0.64443878  0.64209751  0.93034280  1.0
