# generated using pymatgen
data_TbSI2
_symmetry_space_group_name_H-M   'P 1'
_cell_length_a   8.26748943
_cell_length_b   8.26736885
_cell_length_c   10.67137125
_cell_angle_alpha   71.48255983
_cell_angle_beta   71.47673715
_cell_angle_gamma   30.45807727
_symmetry_Int_Tables_number   1
_chemical_formula_structural   TbSI2
_chemical_formula_sum   'Tb2 S2 I4'
_cell_volume   349.12546714
_cell_formula_units_Z   2
loop_
 _symmetry_equiv_pos_site_id
 _symmetry_equiv_pos_as_xyz
  1  'x, y, z'
loop_
 _atom_site_type_symbol
 _atom_site_label
 _atom_site_symmetry_multiplicity
 _atom_site_fract_x
 _atom_site_fract_y
 _atom_site_fract_z
 _atom_site_occupancy
  Tb  Tb0  1  0.00001528  0.99999621  0.99998098  1.0
  Tb  Tb1  1  0.00000471  0.99998426  0.50001868  1.0
  S  S2  1  0.98113638  0.01885612  0.75000325  1.0
  S  S3  1  0.01882361  0.98118249  0.24999684  1.0
  I  I4  1  0.35646597  0.35495467  0.57126877  1.0
  I  I5  1  0.64353304  0.64502349  0.42868718  1.0
  I  I6  1  0.35496592  0.35647572  0.07127747  1.0
  I  I7  1  0.64505510  0.64352704  0.92876582  1.0
