# generated using pymatgen
data_TbSO
_symmetry_space_group_name_H-M   'P 1'
_cell_length_a   4.33249726
_cell_length_b   4.33248900
_cell_length_c   4.33247839
_cell_angle_alpha   60.00105798
_cell_angle_beta   60.00101446
_cell_angle_gamma   60.00106096
_symmetry_Int_Tables_number   1
_chemical_formula_structural   TbSO
_chemical_formula_sum   'Tb1 S1 O1'
_cell_volume   57.50524485
_cell_formula_units_Z   1
loop_
 _symmetry_equiv_pos_site_id
 _symmetry_equiv_pos_as_xyz
  1  'x, y, z'
loop_
 _atom_site_type_symbol
 _atom_site_label
 _atom_site_symmetry_multiplicity
 _atom_site_fract_x
 _atom_site_fract_y
 _atom_site_fract_z
 _atom_site_occupancy
  Tb  Tb0  1  0.00000054  0.99999997  0.00000059  1.0
  S  S1  1  0.74999997  0.75000005  0.74999995  1.0
  O  O2  1  0.24999950  0.24999999  0.24999946  1.0
