# generated using pymatgen
data_TbTeCl2
_symmetry_space_group_name_H-M   'P 1'
_cell_length_a   3.44093782
_cell_length_b   10.72468415
_cell_length_c   10.86103108
_cell_angle_alpha   68.04572347
_cell_angle_beta   89.99869690
_cell_angle_gamma   90.00024756
_symmetry_Int_Tables_number   1
_chemical_formula_structural   TbTeCl2
_chemical_formula_sum   'Tb2 Te2 Cl4'
_cell_volume   371.73899286
_cell_formula_units_Z   2
loop_
 _symmetry_equiv_pos_site_id
 _symmetry_equiv_pos_as_xyz
  1  'x, y, z'
loop_
 _atom_site_type_symbol
 _atom_site_label
 _atom_site_symmetry_multiplicity
 _atom_site_fract_x
 _atom_site_fract_y
 _atom_site_fract_z
 _atom_site_occupancy
  Tb  Tb0  1  0.00000055  0.83814241  0.31759299  1.0
  Tb  Tb1  1  0.99999945  0.16185766  0.68240717  1.0
  Te  Te2  1  0.50000052  0.62881546  0.24425503  1.0
  Te  Te3  1  0.49999948  0.37118364  0.75574336  1.0
  Cl  Cl4  1  0.50000269  0.02372955  0.17917943  1.0
  Cl  Cl5  1  0.49999731  0.97627141  0.82082024  1.0
  Cl  Cl6  1  0.49999884  0.80628103  0.51109220  1.0
  Cl  Cl7  1  0.50000116  0.19371884  0.48890958  1.0
