# generated using pymatgen
data_TbTeBr
_symmetry_space_group_name_H-M   'P 1'
_cell_length_a   5.24938777
_cell_length_b   5.24938772
_cell_length_c   5.24938953
_cell_angle_alpha   59.99999551
_cell_angle_beta   60.00000421
_cell_angle_gamma   60.00002848
_symmetry_Int_Tables_number   1
_chemical_formula_structural   TbTeBr
_chemical_formula_sum   'Tb1 Te1 Br1'
_cell_volume   102.28482383
_cell_formula_units_Z   1
loop_
 _symmetry_equiv_pos_site_id
 _symmetry_equiv_pos_as_xyz
  1  'x, y, z'
loop_
 _atom_site_type_symbol
 _atom_site_label
 _atom_site_symmetry_multiplicity
 _atom_site_fract_x
 _atom_site_fract_y
 _atom_site_fract_z
 _atom_site_occupancy
  Tb  Tb0  1  0.99999997  0.00000003  0.00000000  1.0
  Te  Te1  1  0.25000002  0.24999999  0.24999997  1.0
  Br  Br2  1  0.50000001  0.49999999  0.50000003  1.0
