# generated using pymatgen
data_TlCuCl4
_symmetry_space_group_name_H-M   'P 1'
_cell_length_a   6.24298631
_cell_length_b   7.36511744
_cell_length_c   7.11224978
_cell_angle_alpha   90.00000492
_cell_angle_beta   89.99999470
_cell_angle_gamma   99.77675680
_symmetry_Int_Tables_number   1
_chemical_formula_structural   TlCuCl4
_chemical_formula_sum   'Tl2 Cu2 Cl8'
_cell_volume   322.27416602
_cell_formula_units_Z   2
loop_
 _symmetry_equiv_pos_site_id
 _symmetry_equiv_pos_as_xyz
  1  'x, y, z'
loop_
 _atom_site_type_symbol
 _atom_site_label
 _atom_site_symmetry_multiplicity
 _atom_site_fract_x
 _atom_site_fract_y
 _atom_site_fract_z
 _atom_site_occupancy
  Tl  Tl0  1  0.00000001  0.24999999  0.17815084  1.0
  Tl  Tl1  1  0.99999999  0.75000001  0.82185031  1.0
  Cu  Cu2  1  0.50000004  0.24999994  0.64477082  1.0
  Cu  Cu3  1  0.49999998  0.75000005  0.35522566  1.0
  Cl  Cl4  1  0.27995862  0.10052344  0.42165827  1.0
  Cl  Cl5  1  0.72004144  0.39947646  0.42165829  1.0
  Cl  Cl6  1  0.72003426  0.89947227  0.57833472  1.0
  Cl  Cl7  1  0.27996570  0.60052777  0.57833469  1.0
  Cl  Cl8  1  0.26503983  0.12426997  0.86973490  1.0
  Cl  Cl9  1  0.73496023  0.37573004  0.86973493  1.0
  Cl  Cl10  1  0.73495284  0.87572204  0.13027330  1.0
  Cl  Cl11  1  0.26504706  0.62427802  0.13027329  1.0
