# generated using pymatgen
data_TlHF2
_symmetry_space_group_name_H-M   'P 1'
_cell_length_a   3.98722753
_cell_length_b   3.98718862
_cell_length_c   3.72189698
_cell_angle_alpha   90.00050947
_cell_angle_beta   90.00129487
_cell_angle_gamma   119.99998591
_symmetry_Int_Tables_number   1
_chemical_formula_structural   TlHF2
_chemical_formula_sum   'Tl1 H1 F2'
_cell_volume   51.24279871
_cell_formula_units_Z   1
loop_
 _symmetry_equiv_pos_site_id
 _symmetry_equiv_pos_as_xyz
  1  'x, y, z'
loop_
 _atom_site_type_symbol
 _atom_site_label
 _atom_site_symmetry_multiplicity
 _atom_site_fract_x
 _atom_site_fract_y
 _atom_site_fract_z
 _atom_site_occupancy
  Tl  Tl0  1  0.00000019  0.00000017  0.00000092  1.0
  H  H1  1  0.99999971  0.99999979  0.50000096  1.0
  F  F2  1  0.66666667  0.33333333  0.81773294  1.0
  F  F3  1  0.33333333  0.66666667  0.18226518  1.0
