# generated using pymatgen
data_TlHF4
_symmetry_space_group_name_H-M   'P 1'
_cell_length_a   6.42796851
_cell_length_b   5.51166400
_cell_length_c   11.03234311
_cell_angle_alpha   63.26964253
_cell_angle_beta   90.00000398
_cell_angle_gamma   90.00000207
_symmetry_Int_Tables_number   1
_chemical_formula_structural   TlHF4
_chemical_formula_sum   'Tl4 H4 F16'
_cell_volume   349.09245862
_cell_formula_units_Z   4
loop_
 _symmetry_equiv_pos_site_id
 _symmetry_equiv_pos_as_xyz
  1  'x, y, z'
loop_
 _atom_site_type_symbol
 _atom_site_label
 _atom_site_symmetry_multiplicity
 _atom_site_fract_x
 _atom_site_fract_y
 _atom_site_fract_z
 _atom_site_occupancy
  Tl  Tl0  1  0.84225578  0.75577230  0.99319590  1.0
  Tl  Tl1  1  0.34225575  0.24422768  0.50680410  1.0
  Tl  Tl2  1  0.65774425  0.75577233  0.49319590  1.0
  Tl  Tl3  1  0.15774422  0.24422769  0.00680410  1.0
  H  H4  1  0.73859697  0.75890078  0.23991032  1.0
  H  H5  1  0.76140298  0.75890085  0.73991035  1.0
  H  H6  1  0.23859703  0.24109916  0.26008964  1.0
  H  H7  1  0.26140304  0.24109921  0.76008968  1.0
  F  F8  1  0.62271960  0.32236100  0.61087260  1.0
  F  F9  1  0.11305584  0.81156113  0.11189087  1.0
  F  F10  1  0.64283856  0.78953450  0.14750767  1.0
  F  F11  1  0.15917028  0.27137639  0.66629527  1.0
  F  F12  1  0.65917021  0.72862372  0.83370473  1.0
  F  F13  1  0.87728036  0.32236092  0.11087260  1.0
  F  F14  1  0.14283863  0.21046546  0.35249228  1.0
  F  F15  1  0.38694410  0.81156112  0.61189086  1.0
  F  F16  1  0.61305590  0.18843889  0.38810914  1.0
  F  F17  1  0.85716138  0.78953455  0.64750772  1.0
  F  F18  1  0.12271964  0.67763907  0.88912741  1.0
  F  F19  1  0.34082980  0.27137628  0.16629527  1.0
  F  F20  1  0.84082972  0.72862361  0.33370473  1.0
  F  F21  1  0.35716143  0.21046549  0.85249233  1.0
  F  F22  1  0.88694416  0.18843887  0.88810913  1.0
  F  F23  1  0.37728039  0.67763901  0.38912740  1.0
