# generated using pymatgen
data_TlICl2
_symmetry_space_group_name_H-M   'P 1'
_cell_length_a   5.70855213
_cell_length_b   5.91514486
_cell_length_c   10.80936442
_cell_angle_alpha   100.55132162
_cell_angle_beta   98.75845140
_cell_angle_gamma   89.03135034
_symmetry_Int_Tables_number   1
_chemical_formula_structural   TlICl2
_chemical_formula_sum   'Tl2 I2 Cl4'
_cell_volume   354.62030391
_cell_formula_units_Z   2
loop_
 _symmetry_equiv_pos_site_id
 _symmetry_equiv_pos_as_xyz
  1  'x, y, z'
loop_
 _atom_site_type_symbol
 _atom_site_label
 _atom_site_symmetry_multiplicity
 _atom_site_fract_x
 _atom_site_fract_y
 _atom_site_fract_z
 _atom_site_occupancy
  Tl  Tl0  1  0.46541168  0.71076379  0.34409144  1.0
  Tl  Tl1  1  0.53456931  0.28919060  0.65586470  1.0
  I  I2  1  0.94235801  0.66489886  0.26480892  1.0
  I  I3  1  0.05765867  0.33511605  0.73519135  1.0
  Cl  Cl4  1  0.61831418  0.92126911  0.06094256  1.0
  Cl  Cl5  1  0.38168290  0.07878316  0.93907458  1.0
  Cl  Cl6  1  0.53047518  0.78405982  0.60150405  1.0
  Cl  Cl7  1  0.46953007  0.21591860  0.39852241  1.0
