# generated using pymatgen
data_TlInCl4
_symmetry_space_group_name_H-M   'P 1'
_cell_length_a   7.58554946
_cell_length_b   8.54843235
_cell_length_c   13.76940151
_cell_angle_alpha   75.21726618
_cell_angle_beta   89.99998665
_cell_angle_gamma   90.00000791
_symmetry_Int_Tables_number   1
_chemical_formula_structural   TlInCl4
_chemical_formula_sum   'Tl4 In4 Cl16'
_cell_volume   863.31700054
_cell_formula_units_Z   4
loop_
 _symmetry_equiv_pos_site_id
 _symmetry_equiv_pos_as_xyz
  1  'x, y, z'
loop_
 _atom_site_type_symbol
 _atom_site_label
 _atom_site_symmetry_multiplicity
 _atom_site_fract_x
 _atom_site_fract_y
 _atom_site_fract_z
 _atom_site_occupancy
  Tl  Tl0  1  0.09208581  0.99999992  0.24999990  1.0
  Tl  Tl1  1  0.38342450  0.50000007  0.74999994  1.0
  Tl  Tl2  1  0.61657626  0.49999999  0.25000007  1.0
  Tl  Tl3  1  0.90791578  0.00000014  0.75000001  1.0
  In  In4  1  0.78777297  0.71528118  0.54632575  1.0
  In  In5  1  0.21222688  0.28471946  0.45367354  1.0
  In  In6  1  0.78777277  0.28471844  0.95367452  1.0
  In  In7  1  0.21222672  0.71528074  0.04632631  1.0
  Cl  Cl8  1  0.58102357  0.14969710  0.87073914  1.0
  Cl  Cl9  1  0.28200185  0.56601273  0.39223832  1.0
  Cl  Cl10  1  0.92541672  0.78503410  0.09535950  1.0
  Cl  Cl11  1  0.07458350  0.78503466  0.59535927  1.0
  Cl  Cl12  1  0.28200189  0.43398618  0.10776193  1.0
  Cl  Cl13  1  0.41897694  0.85030342  0.12926117  1.0
  Cl  Cl14  1  0.58102206  0.85030389  0.62926173  1.0
  Cl  Cl15  1  0.23473819  0.21556158  0.63354891  1.0
  Cl  Cl16  1  0.07458091  0.21496603  0.90464104  1.0
  Cl  Cl17  1  0.76526259  0.21556112  0.13354834  1.0
  Cl  Cl18  1  0.41897622  0.14969709  0.37073889  1.0
  Cl  Cl19  1  0.76526259  0.78443931  0.36645010  1.0
  Cl  Cl20  1  0.71799801  0.56601179  0.89223870  1.0
  Cl  Cl21  1  0.23473831  0.78443903  0.86645027  1.0
  Cl  Cl22  1  0.92541752  0.21496595  0.40464090  1.0
  Cl  Cl23  1  0.71799743  0.43398606  0.60776176  1.0
