# generated using pymatgen
data_TlReF4
_symmetry_space_group_name_H-M   'P 1'
_cell_length_a   6.83498828
_cell_length_b   8.23159081
_cell_length_c   8.83134796
_cell_angle_alpha   84.94213847
_cell_angle_beta   89.75279873
_cell_angle_gamma   89.98416587
_symmetry_Int_Tables_number   1
_chemical_formula_structural   TlReF4
_chemical_formula_sum   'Tl4 Re4 F16'
_cell_volume   494.93723949
_cell_formula_units_Z   4
loop_
 _symmetry_equiv_pos_site_id
 _symmetry_equiv_pos_as_xyz
  1  'x, y, z'
loop_
 _atom_site_type_symbol
 _atom_site_label
 _atom_site_symmetry_multiplicity
 _atom_site_fract_x
 _atom_site_fract_y
 _atom_site_fract_z
 _atom_site_occupancy
  Tl  Tl0  1  0.68234569  0.87434031  0.37552639  1.0
  Tl  Tl1  1  0.31764622  0.12567586  0.62447614  1.0
  Tl  Tl2  1  0.68234760  0.37432084  0.87552718  1.0
  Tl  Tl3  1  0.31765059  0.62566233  0.12447202  1.0
  Re  Re4  1  0.16023110  0.62462783  0.62533051  1.0
  Re  Re5  1  0.16022200  0.12462491  0.12532029  1.0
  Re  Re6  1  0.83976468  0.87538262  0.87466988  1.0
  Re  Re7  1  0.83977646  0.37536462  0.37468159  1.0
  F  F8  1  0.36231143  0.45558423  0.66915175  1.0
  F  F9  1  0.36232619  0.95557097  0.16913151  1.0
  F  F10  1  0.36147611  0.29470290  0.08202011  1.0
  F  F11  1  0.36148551  0.79471399  0.58202726  1.0
  F  F12  1  0.63768353  0.54442946  0.33085831  1.0
  F  F13  1  0.63768333  0.04441204  0.83084923  1.0
  F  F14  1  0.63851456  0.70528232  0.91797527  1.0
  F  F15  1  0.63853268  0.20529943  0.41798673  1.0
  F  F16  1  0.95572659  0.45105185  0.65726935  1.0
  F  F17  1  0.95573634  0.95102921  0.15727018  1.0
  F  F18  1  0.95460666  0.29724622  0.09315016  1.0
  F  F19  1  0.95461275  0.79727327  0.59314397  1.0
  F  F20  1  0.04538804  0.70272764  0.90685901  1.0
  F  F21  1  0.04539633  0.20274843  0.40685431  1.0
  F  F22  1  0.04427416  0.54897214  0.34272765  1.0
  F  F23  1  0.04426243  0.04895559  0.84272919  1.0
