# generated using pymatgen
data_TlSeI
_symmetry_space_group_name_H-M   'P 1'
_cell_length_a   8.58367457
_cell_length_b   8.58367556
_cell_length_c   8.58368820
_cell_angle_alpha   59.99984711
_cell_angle_beta   59.99981495
_cell_angle_gamma   59.99979866
_symmetry_Int_Tables_number   1
_chemical_formula_structural   TlSeI
_chemical_formula_sum   'Tl4 Se4 I4'
_cell_volume   447.20196573
_cell_formula_units_Z   4
loop_
 _symmetry_equiv_pos_site_id
 _symmetry_equiv_pos_as_xyz
  1  'x, y, z'
loop_
 _atom_site_type_symbol
 _atom_site_label
 _atom_site_symmetry_multiplicity
 _atom_site_fract_x
 _atom_site_fract_y
 _atom_site_fract_z
 _atom_site_occupancy
  Tl  Tl0  1  0.60925826  0.60925820  0.60925763  1.0
  Tl  Tl1  1  0.60925906  0.17222483  0.60925846  1.0
  Tl  Tl2  1  0.60925872  0.60925848  0.17222575  1.0
  Tl  Tl3  1  0.17222474  0.60925903  0.60925863  1.0
  Se  Se4  1  0.37898803  0.86303481  0.37898854  1.0
  Se  Se5  1  0.86303514  0.37898788  0.37898843  1.0
  Se  Se6  1  0.37898859  0.37898866  0.86303334  1.0
  Se  Se7  1  0.37898934  0.37898933  0.37898986  1.0
  I  I8  1  0.87329191  0.87329199  0.87329204  1.0
  I  I9  1  0.87329217  0.87329232  0.38012342  1.0
  I  I10  1  0.87329230  0.38012308  0.87329240  1.0
  I  I11  1  0.38012273  0.87329238  0.87329250  1.0
