# generated using pymatgen
data_TlVF4
_symmetry_space_group_name_H-M   'P 1'
_cell_length_a   5.75985156
_cell_length_b   6.83608210
_cell_length_c   5.48525682
_cell_angle_alpha   89.99997616
_cell_angle_beta   89.43025464
_cell_angle_gamma   89.99995971
_symmetry_Int_Tables_number   1
_chemical_formula_structural   TlVF4
_chemical_formula_sum   'Tl2 V2 F8'
_cell_volume   215.97031158
_cell_formula_units_Z   2
loop_
 _symmetry_equiv_pos_site_id
 _symmetry_equiv_pos_as_xyz
  1  'x, y, z'
loop_
 _atom_site_type_symbol
 _atom_site_label
 _atom_site_symmetry_multiplicity
 _atom_site_fract_x
 _atom_site_fract_y
 _atom_site_fract_z
 _atom_site_occupancy
  Tl  Tl0  1  0.49999767  0.33363778  0.24999966  1.0
  Tl  Tl1  1  0.49999745  0.66636230  0.74999951  1.0
  V  V2  1  0.00001833  0.86486106  0.25000137  1.0
  V  V3  1  0.00001781  0.13513805  0.75000136  1.0
  F  F4  1  0.18807095  0.07314101  0.45113074  1.0
  F  F5  1  0.81192213  0.07314111  0.04887112  1.0
  F  F6  1  0.81192185  0.92685906  0.54887146  1.0
  F  F7  1  0.18807066  0.92685898  0.95113103  1.0
  F  F8  1  0.21208235  0.67281734  0.36285505  1.0
  F  F9  1  0.78790868  0.67281119  0.13714173  1.0
  F  F10  1  0.78790889  0.32718913  0.63714165  1.0
  F  F11  1  0.21208322  0.32718299  0.86285532  1.0
