# generated using pymatgen
data_Tm2HN
_symmetry_space_group_name_H-M   'P 1'
_cell_length_a   6.03441497
_cell_length_b   7.51138089
_cell_length_c   6.08127955
_cell_angle_alpha   75.73187611
_cell_angle_beta   113.21896433
_cell_angle_gamma   76.00906640
_symmetry_Int_Tables_number   1
_chemical_formula_structural   Tm2HN
_chemical_formula_sum   'Tm8 H4 N4'
_cell_volume   227.03373523
_cell_formula_units_Z   4
loop_
 _symmetry_equiv_pos_site_id
 _symmetry_equiv_pos_as_xyz
  1  'x, y, z'
loop_
 _atom_site_type_symbol
 _atom_site_label
 _atom_site_symmetry_multiplicity
 _atom_site_fract_x
 _atom_site_fract_y
 _atom_site_fract_z
 _atom_site_occupancy
  Tm  Tm0  1  0.92874516  0.62632397  0.20930232  1.0
  Tm  Tm1  1  0.82679949  0.87502959  0.54817856  1.0
  Tm  Tm2  1  0.29804675  0.87509046  0.07695148  1.0
  Tm  Tm3  1  0.55472188  0.37368552  0.33540912  1.0
  Tm  Tm4  1  0.44527811  0.62631449  0.66459082  1.0
  Tm  Tm5  1  0.70195324  0.12490953  0.92304854  1.0
  Tm  Tm6  1  0.17320052  0.12497041  0.45182141  1.0
  Tm  Tm7  1  0.07125486  0.37367603  0.79069769  1.0
  H  H8  1  0.81609062  0.36719640  0.06624986  1.0
  H  H9  1  0.44018197  0.11948137  0.19024331  1.0
  H  H10  1  0.55981801  0.88051864  0.80975670  1.0
  H  H11  1  0.18390936  0.63280359  0.93375017  1.0
  N  N12  1  0.93714316  0.12572508  0.68711768  1.0
  N  N13  1  0.68748268  0.62520632  0.43736148  1.0
  N  N14  1  0.31251737  0.37479368  0.56263854  1.0
  N  N15  1  0.06285682  0.87427494  0.31288232  1.0
