# generated using pymatgen
data_TmAsO4
_symmetry_space_group_name_H-M   'P 1'
_cell_length_a   4.94972816
_cell_length_b   5.14508959
_cell_length_c   5.39780399
_cell_angle_alpha   89.99535971
_cell_angle_beta   90.00114791
_cell_angle_gamma   82.12248391
_symmetry_Int_Tables_number   1
_chemical_formula_structural   TmAsO4
_chemical_formula_sum   'Tm2 As2 O8'
_cell_volume   136.16755559
_cell_formula_units_Z   2
loop_
 _symmetry_equiv_pos_site_id
 _symmetry_equiv_pos_as_xyz
  1  'x, y, z'
loop_
 _atom_site_type_symbol
 _atom_site_label
 _atom_site_symmetry_multiplicity
 _atom_site_fract_x
 _atom_site_fract_y
 _atom_site_fract_z
 _atom_site_occupancy
  Tm  Tm0  1  0.49999810  0.75000400  0.28539128  1.0
  Tm  Tm1  1  0.50000135  0.24999628  0.71460802  1.0
  As  As2  1  0.00001025  0.74999612  0.82987518  1.0
  As  As3  1  0.99999188  0.25000386  0.17012667  1.0
  O  O4  1  0.78334256  0.48017469  0.92132654  1.0
  O  O5  1  0.21665705  0.51982481  0.07867334  1.0
  O  O6  1  0.21665725  0.01982075  0.92132669  1.0
  O  O7  1  0.78334245  0.98017951  0.07867343  1.0
  O  O8  1  0.75361658  0.88387096  0.61114906  1.0
  O  O9  1  0.24638207  0.11612993  0.38885007  1.0
  O  O10  1  0.24637858  0.61613131  0.61115159  1.0
  O  O11  1  0.75362189  0.38386778  0.38884814  1.0
