# generated using pymatgen
data_TmBiO4
_symmetry_space_group_name_H-M   'P 1'
_cell_length_a   5.27277945
_cell_length_b   5.47306804
_cell_length_c   5.53694059
_cell_angle_alpha   90.00717853
_cell_angle_beta   90.00002232
_cell_angle_gamma   84.69793752
_symmetry_Int_Tables_number   1
_chemical_formula_structural   TmBiO4
_chemical_formula_sum   'Tm2 Bi2 O8'
_cell_volume   159.10291717
_cell_formula_units_Z   2
loop_
 _symmetry_equiv_pos_site_id
 _symmetry_equiv_pos_as_xyz
  1  'x, y, z'
loop_
 _atom_site_type_symbol
 _atom_site_label
 _atom_site_symmetry_multiplicity
 _atom_site_fract_x
 _atom_site_fract_y
 _atom_site_fract_z
 _atom_site_occupancy
  Tm  Tm0  1  0.50000664  0.74999146  0.27003814  1.0
  Tm  Tm1  1  0.49999345  0.25000851  0.72996308  1.0
  Bi  Bi2  1  0.00001626  0.75001520  0.79086013  1.0
  Bi  Bi3  1  0.99998362  0.24998451  0.20913968  1.0
  O  O4  1  0.75036267  0.50759655  0.95045824  1.0
  O  O5  1  0.24963744  0.49240357  0.04954163  1.0
  O  O6  1  0.24959763  0.99237863  0.95043584  1.0
  O  O7  1  0.75040159  0.00762112  0.04956370  1.0
  O  O8  1  0.73747101  0.93092473  0.55756524  1.0
  O  O9  1  0.26252927  0.06907628  0.44243436  1.0
  O  O10  1  0.26248193  0.56905638  0.55755503  1.0
  O  O11  1  0.73751849  0.43094305  0.44244493  1.0
