# generated using pymatgen
data_TmBr2F
_symmetry_space_group_name_H-M   'P 1'
_cell_length_a   6.70440243
_cell_length_b   6.70441298
_cell_length_c   7.48974083
_cell_angle_alpha   57.60276125
_cell_angle_beta   57.57194116
_cell_angle_gamma   67.66423530
_symmetry_Int_Tables_number   1
_chemical_formula_structural   TmBr2F
_chemical_formula_sum   'Tm2 Br4 F2'
_cell_volume   237.89266876
_cell_formula_units_Z   2
loop_
 _symmetry_equiv_pos_site_id
 _symmetry_equiv_pos_as_xyz
  1  'x, y, z'
loop_
 _atom_site_type_symbol
 _atom_site_label
 _atom_site_symmetry_multiplicity
 _atom_site_fract_x
 _atom_site_fract_y
 _atom_site_fract_z
 _atom_site_occupancy
  Tm  Tm0  1  0.50000086  0.00000084  0.49999919  1.0
  Tm  Tm1  1  0.00000110  0.50000067  0.99999934  1.0
  Br  Br2  1  0.29735635  0.14649188  0.20198657  1.0
  Br  Br3  1  0.85348533  0.70260256  0.29801066  1.0
  Br  Br4  1  0.14651469  0.29739766  0.70198925  1.0
  Br  Br5  1  0.70264362  0.85350839  0.79801307  1.0
  F  F6  1  0.27631486  0.72372580  0.74999662  1.0
  F  F7  1  0.72368319  0.27627221  0.25000531  1.0
