# generated using pymatgen
data_TmCdH4
_symmetry_space_group_name_H-M   'P 1'
_cell_length_a   4.94203961
_cell_length_b   5.17508559
_cell_length_c   5.17778861
_cell_angle_alpha   90.00179754
_cell_angle_beta   89.99678465
_cell_angle_gamma   86.86860736
_symmetry_Int_Tables_number   1
_chemical_formula_structural   TmCdH4
_chemical_formula_sum   'Tm2 Cd2 H8'
_cell_volume   132.22669408
_cell_formula_units_Z   2
loop_
 _symmetry_equiv_pos_site_id
 _symmetry_equiv_pos_as_xyz
  1  'x, y, z'
loop_
 _atom_site_type_symbol
 _atom_site_label
 _atom_site_symmetry_multiplicity
 _atom_site_fract_x
 _atom_site_fract_y
 _atom_site_fract_z
 _atom_site_occupancy
  Tm  Tm0  1  0.50000059  0.75000007  0.24960553  1.0
  Tm  Tm1  1  0.49999941  0.24999992  0.75039448  1.0
  Cd  Cd2  1  0.99999970  0.74999984  0.74860857  1.0
  Cd  Cd3  1  0.00000029  0.25000014  0.25139142  1.0
  H  H4  1  0.74174135  0.48751043  0.00138746  1.0
  H  H5  1  0.25825862  0.51248960  0.99861253  1.0
  H  H6  1  0.25825707  0.01248902  0.00139580  1.0
  H  H7  1  0.74174297  0.98751099  0.99860421  1.0
  H  H8  1  0.74361910  0.98962343  0.49588353  1.0
  H  H9  1  0.25638089  0.01037658  0.50411648  1.0
  H  H10  1  0.25638017  0.51037606  0.49589278  1.0
  H  H11  1  0.74361984  0.48962391  0.50410722  1.0
