# generated using pymatgen
data_TmCdI4
_symmetry_space_group_name_H-M   'P 1'
_cell_length_a   7.36165829
_cell_length_b   7.65383383
_cell_length_c   9.11023718
_cell_angle_alpha   89.99964534
_cell_angle_beta   90.00077105
_cell_angle_gamma   95.99359433
_symmetry_Int_Tables_number   1
_chemical_formula_structural   TmCdI4
_chemical_formula_sum   'Tm2 Cd2 I8'
_cell_volume   510.50948685
_cell_formula_units_Z   2
loop_
 _symmetry_equiv_pos_site_id
 _symmetry_equiv_pos_as_xyz
  1  'x, y, z'
loop_
 _atom_site_type_symbol
 _atom_site_label
 _atom_site_symmetry_multiplicity
 _atom_site_fract_x
 _atom_site_fract_y
 _atom_site_fract_z
 _atom_site_occupancy
  Tm  Tm0  1  0.50000005  0.74999964  0.36940587  1.0
  Tm  Tm1  1  0.50000007  0.25000015  0.63059090  1.0
  Cd  Cd2  1  0.99999910  0.74999894  0.85623866  1.0
  Cd  Cd3  1  0.00000076  0.25000112  0.14376766  1.0
  I  I4  1  0.73367478  0.40958551  0.87045286  1.0
  I  I5  1  0.26632064  0.59041711  0.12954951  1.0
  I  I6  1  0.26632392  0.09041350  0.87045327  1.0
  I  I7  1  0.73368070  0.90958394  0.12954902  1.0
  I  I8  1  0.73544273  0.94947666  0.60191962  1.0
  I  I9  1  0.26455623  0.05052895  0.39807653  1.0
  I  I10  1  0.26455684  0.55052065  0.60192005  1.0
  I  I11  1  0.73544419  0.44947383  0.39807605  1.0
