# generated using pymatgen
data_TmCoF4
_symmetry_space_group_name_H-M   'P 1'
_cell_length_a   5.25007648
_cell_length_b   5.23662596
_cell_length_c   5.41874230
_cell_angle_alpha   87.58945668
_cell_angle_beta   90.00057931
_cell_angle_gamma   90.00177037
_symmetry_Int_Tables_number   1
_chemical_formula_structural   TmCoF4
_chemical_formula_sum   'Tm2 Co2 F8'
_cell_volume   148.84395719
_cell_formula_units_Z   2
loop_
 _symmetry_equiv_pos_site_id
 _symmetry_equiv_pos_as_xyz
  1  'x, y, z'
loop_
 _atom_site_type_symbol
 _atom_site_label
 _atom_site_symmetry_multiplicity
 _atom_site_fract_x
 _atom_site_fract_y
 _atom_site_fract_z
 _atom_site_occupancy
  Tm  Tm0  1  0.00000278  0.99999917  0.99999854  1.0
  Tm  Tm1  1  0.49999742  0.49999992  0.99999869  1.0
  Co  Co2  1  0.00000047  0.50000020  0.50000027  1.0
  Co  Co3  1  0.49999957  0.00000001  0.50000027  1.0
  F  F4  1  0.70519922  0.18970870  0.21515461  1.0
  F  F5  1  0.20520231  0.31029950  0.78485019  1.0
  F  F6  1  0.28385872  0.76591849  0.23903438  1.0
  F  F7  1  0.78385337  0.73407248  0.76097524  1.0
  F  F8  1  0.29479981  0.81029177  0.78484691  1.0
  F  F9  1  0.79479840  0.68970080  0.21515068  1.0
  F  F10  1  0.71614094  0.23408142  0.76096559  1.0
  F  F11  1  0.21614699  0.26592754  0.23902463  1.0
