# generated using pymatgen
data_TmCrF4
_symmetry_space_group_name_H-M   'P 1'
_cell_length_a   5.45272010
_cell_length_b   5.68413962
_cell_length_c   6.66631532
_cell_angle_alpha   90.00001566
_cell_angle_beta   90.00000468
_cell_angle_gamma   97.30522232
_symmetry_Int_Tables_number   1
_chemical_formula_structural   TmCrF4
_chemical_formula_sum   'Tm2 Cr2 F8'
_cell_volume   204.93879504
_cell_formula_units_Z   2
loop_
 _symmetry_equiv_pos_site_id
 _symmetry_equiv_pos_as_xyz
  1  'x, y, z'
loop_
 _atom_site_type_symbol
 _atom_site_label
 _atom_site_symmetry_multiplicity
 _atom_site_fract_x
 _atom_site_fract_y
 _atom_site_fract_z
 _atom_site_occupancy
  Tm  Tm0  1  0.49999993  0.74999991  0.34295560  1.0
  Tm  Tm1  1  0.50000008  0.25000010  0.65704741  1.0
  Cr  Cr2  1  0.00000004  0.75000005  0.84186768  1.0
  Cr  Cr3  1  0.99999996  0.24999993  0.15813173  1.0
  F  F4  1  0.75517415  0.43553789  0.85466169  1.0
  F  F5  1  0.24482796  0.56446806  0.14533523  1.0
  F  F6  1  0.24482575  0.06446229  0.85466158  1.0
  F  F7  1  0.75517212  0.93553172  0.14533528  1.0
  F  F8  1  0.69881991  0.95393480  0.59186869  1.0
  F  F9  1  0.30118097  0.04606783  0.40813320  1.0
  F  F10  1  0.30118007  0.54606535  0.59186858  1.0
  F  F11  1  0.69881906  0.45393207  0.40813332  1.0
