# generated using pymatgen
data_TmCrH4
_symmetry_space_group_name_H-M   'P 1'
_cell_length_a   4.45718421
_cell_length_b   4.90456307
_cell_length_c   5.03078910
_cell_angle_alpha   89.99862648
_cell_angle_beta   90.00161548
_cell_angle_gamma   84.92599284
_symmetry_Int_Tables_number   1
_chemical_formula_structural   TmCrH4
_chemical_formula_sum   'Tm2 Cr2 H8'
_cell_volume   109.54480859
_cell_formula_units_Z   2
loop_
 _symmetry_equiv_pos_site_id
 _symmetry_equiv_pos_as_xyz
  1  'x, y, z'
loop_
 _atom_site_type_symbol
 _atom_site_label
 _atom_site_symmetry_multiplicity
 _atom_site_fract_x
 _atom_site_fract_y
 _atom_site_fract_z
 _atom_site_occupancy
  Tm  Tm0  1  0.50000324  0.75000681  0.26248154  1.0
  Tm  Tm1  1  0.49999691  0.24999311  0.73751230  1.0
  Cr  Cr2  1  0.99999031  0.75000744  0.80881907  1.0
  Cr  Cr3  1  0.00000967  0.24999233  0.19117388  1.0
  H  H4  1  0.77905051  0.49496687  0.97383918  1.0
  H  H5  1  0.22094793  0.50503131  0.02616266  1.0
  H  H6  1  0.22094697  0.00504573  0.97384066  1.0
  H  H7  1  0.77905456  0.99495627  0.02616111  1.0
  H  H8  1  0.77340764  0.92203198  0.56013881  1.0
  H  H9  1  0.22660379  0.07796024  0.43986607  1.0
  H  H10  1  0.22658851  0.57798565  0.56013492  1.0
  H  H11  1  0.77339995  0.42202226  0.43986979  1.0
