# generated using pymatgen
data_TmH4Pb
_symmetry_space_group_name_H-M   'P 1'
_cell_length_a   8.20704995
_cell_length_b   8.20711257
_cell_length_c   5.87284846
_cell_angle_alpha   89.99954472
_cell_angle_beta   90.00050338
_cell_angle_gamma   154.76296061
_symmetry_Int_Tables_number   1
_chemical_formula_structural   TmH4Pb
_chemical_formula_sum   'Tm2 H8 Pb2'
_cell_volume   168.65799321
_cell_formula_units_Z   2
loop_
 _symmetry_equiv_pos_site_id
 _symmetry_equiv_pos_as_xyz
  1  'x, y, z'
loop_
 _atom_site_type_symbol
 _atom_site_label
 _atom_site_symmetry_multiplicity
 _atom_site_fract_x
 _atom_site_fract_y
 _atom_site_fract_z
 _atom_site_occupancy
  Tm  Tm0  1  0.78492665  0.21508228  0.74999943  1.0
  Tm  Tm1  1  0.21507400  0.78491775  0.25000051  1.0
  H  H2  1  0.29829679  0.70172318  0.96249759  1.0
  H  H3  1  0.70170374  0.29827691  0.03750258  1.0
  H  H4  1  0.70170789  0.29828086  0.46249767  1.0
  H  H5  1  0.29829265  0.70171927  0.53750205  1.0
  H  H6  1  0.91356475  0.08642203  0.75000006  1.0
  H  H7  1  0.08643610  0.91357816  0.25000002  1.0
  H  H8  1  0.50000018  0.50000133  0.00000170  1.0
  H  H9  1  0.50000015  0.50000120  0.49999852  1.0
  Pb  Pb10  1  0.04474871  0.95515452  0.74999960  1.0
  Pb  Pb11  1  0.95524839  0.04484251  0.25000026  1.0
