# generated using pymatgen
data_TmIrO4
_symmetry_space_group_name_H-M   'P 1'
_cell_length_a   4.81820706
_cell_length_b   5.48031515
_cell_length_c   5.68738740
_cell_angle_alpha   89.99907643
_cell_angle_beta   89.99874909
_cell_angle_gamma   84.61181229
_symmetry_Int_Tables_number   1
_chemical_formula_structural   TmIrO4
_chemical_formula_sum   'Tm2 Ir2 O8'
_cell_volume   149.51355057
_cell_formula_units_Z   2
loop_
 _symmetry_equiv_pos_site_id
 _symmetry_equiv_pos_as_xyz
  1  'x, y, z'
loop_
 _atom_site_type_symbol
 _atom_site_label
 _atom_site_symmetry_multiplicity
 _atom_site_fract_x
 _atom_site_fract_y
 _atom_site_fract_z
 _atom_site_occupancy
  Tm  Tm0  1  0.49999910  0.74999914  0.32392873  1.0
  Tm  Tm1  1  0.49999957  0.25000280  0.67605858  1.0
  Ir  Ir2  1  0.00000170  0.75000121  0.85585660  1.0
  Ir  Ir3  1  0.00000201  0.24999913  0.14418612  1.0
  O  O4  1  0.78916309  0.45527523  0.89715704  1.0
  O  O5  1  0.21082797  0.54473369  0.10283407  1.0
  O  O6  1  0.21083390  0.04472605  0.89715657  1.0
  O  O7  1  0.78917239  0.95526518  0.10283692  1.0
  O  O8  1  0.74572460  0.89409053  0.61793923  1.0
  O  O9  1  0.25426261  0.10590844  0.38205432  1.0
  O  O10  1  0.25427396  0.60591111  0.61793816  1.0
  O  O11  1  0.74573910  0.39408751  0.38205366  1.0
