# generated using pymatgen
data_TmMgI4
_symmetry_space_group_name_H-M   'P 1'
_cell_length_a   7.02460948
_cell_length_b   7.37543085
_cell_length_c   8.57524623
_cell_angle_alpha   90.00190213
_cell_angle_beta   90.00283816
_cell_angle_gamma   91.30170412
_symmetry_Int_Tables_number   1
_chemical_formula_structural   TmMgI4
_chemical_formula_sum   'Tm2 Mg2 I8'
_cell_volume   444.16474948
_cell_formula_units_Z   2
loop_
 _symmetry_equiv_pos_site_id
 _symmetry_equiv_pos_as_xyz
  1  'x, y, z'
loop_
 _atom_site_type_symbol
 _atom_site_label
 _atom_site_symmetry_multiplicity
 _atom_site_fract_x
 _atom_site_fract_y
 _atom_site_fract_z
 _atom_site_occupancy
  Tm  Tm0  1  0.49999919  0.75000455  0.37889015  1.0
  Tm  Tm1  1  0.50000093  0.24999554  0.62110978  1.0
  Mg  Mg2  1  0.99999942  0.74999840  0.87727002  1.0
  Mg  Mg3  1  0.00000064  0.25000142  0.12272942  1.0
  I  I4  1  0.75247665  0.41627622  0.87678312  1.0
  I  I5  1  0.24752316  0.58372387  0.12321709  1.0
  I  I6  1  0.24752202  0.08371897  0.87678468  1.0
  I  I7  1  0.75247804  0.91628089  0.12321533  1.0
  I  I8  1  0.75273659  0.91912780  0.62388731  1.0
  I  I9  1  0.24726344  0.08087243  0.37611297  1.0
  I  I10  1  0.24726405  0.58086819  0.62388765  1.0
  I  I11  1  0.75273587  0.41913172  0.37611249  1.0
