# generated using pymatgen
data_TmMoH4
_symmetry_space_group_name_H-M   'P 1'
_cell_length_a   4.55828292
_cell_length_b   4.96222562
_cell_length_c   5.22135507
_cell_angle_alpha   89.99888876
_cell_angle_beta   90.00037191
_cell_angle_gamma   81.84886659
_symmetry_Int_Tables_number   1
_chemical_formula_structural   TmMoH4
_chemical_formula_sum   'Tm2 Mo2 H8'
_cell_volume   116.90988847
_cell_formula_units_Z   2
loop_
 _symmetry_equiv_pos_site_id
 _symmetry_equiv_pos_as_xyz
  1  'x, y, z'
loop_
 _atom_site_type_symbol
 _atom_site_label
 _atom_site_symmetry_multiplicity
 _atom_site_fract_x
 _atom_site_fract_y
 _atom_site_fract_z
 _atom_site_occupancy
  Tm  Tm0  1  0.49999906  0.75000202  0.27067872  1.0
  Tm  Tm1  1  0.50000096  0.24999793  0.72932711  1.0
  Mo  Mo2  1  0.00000181  0.74998602  0.85344304  1.0
  Mo  Mo3  1  0.99999820  0.25001402  0.14655774  1.0
  H  H4  1  0.74629999  0.50105566  0.95242335  1.0
  H  H5  1  0.25369945  0.49893202  0.04758161  1.0
  H  H6  1  0.25368596  0.99894743  0.95242804  1.0
  H  H7  1  0.74631459  0.00106490  0.04757694  1.0
  H  H8  1  0.76795183  0.89696232  0.58366684  1.0
  H  H9  1  0.23203915  0.10303920  0.41632488  1.0
  H  H10  1  0.23204697  0.60304228  0.58366408  1.0
  H  H11  1  0.76796204  0.39695620  0.41632766  1.0
