# generated using pymatgen
data_TmMoF4
_symmetry_space_group_name_H-M   'P 1'
_cell_length_a   5.63632234
_cell_length_b   5.69319114
_cell_length_c   6.76483330
_cell_angle_alpha   90.00003386
_cell_angle_beta   89.99999075
_cell_angle_gamma   95.09274862
_symmetry_Int_Tables_number   1
_chemical_formula_structural   TmMoF4
_chemical_formula_sum   'Tm2 Mo2 F8'
_cell_volume   216.21749544
_cell_formula_units_Z   2
loop_
 _symmetry_equiv_pos_site_id
 _symmetry_equiv_pos_as_xyz
  1  'x, y, z'
loop_
 _atom_site_type_symbol
 _atom_site_label
 _atom_site_symmetry_multiplicity
 _atom_site_fract_x
 _atom_site_fract_y
 _atom_site_fract_z
 _atom_site_occupancy
  Tm  Tm0  1  0.49999935  0.74999995  0.34437557  1.0
  Tm  Tm1  1  0.50000067  0.24999999  0.65560757  1.0
  Mo  Mo2  1  0.00000085  0.75000085  0.84101670  1.0
  Mo  Mo3  1  0.99999913  0.24999918  0.15898520  1.0
  F  F4  1  0.71897920  0.44747795  0.85546269  1.0
  F  F5  1  0.28102388  0.55252467  0.14454098  1.0
  F  F6  1  0.28102315  0.05252336  0.85546347  1.0
  F  F7  1  0.71897383  0.94747401  0.14454026  1.0
  F  F8  1  0.70161611  0.95922734  0.57733049  1.0
  F  F9  1  0.29838456  0.04077850  0.42267329  1.0
  F  F10  1  0.29838412  0.54077231  0.57733142  1.0
  F  F11  1  0.70161516  0.45922189  0.42267235  1.0
