# generated using pymatgen
data_TmNbO4
_symmetry_space_group_name_H-M   'P 1'
_cell_length_a   5.11003595
_cell_length_b   5.30757639
_cell_length_c   5.43655224
_cell_angle_alpha   89.99986506
_cell_angle_beta   89.99582362
_cell_angle_gamma   84.31838067
_symmetry_Int_Tables_number   1
_chemical_formula_structural   TmNbO4
_chemical_formula_sum   'Tm2 Nb2 O8'
_cell_volume   146.72529528
_cell_formula_units_Z   2
loop_
 _symmetry_equiv_pos_site_id
 _symmetry_equiv_pos_as_xyz
  1  'x, y, z'
loop_
 _atom_site_type_symbol
 _atom_site_label
 _atom_site_symmetry_multiplicity
 _atom_site_fract_x
 _atom_site_fract_y
 _atom_site_fract_z
 _atom_site_occupancy
  Tm  Tm0  1  0.50001128  0.74998818  0.25960737  1.0
  Tm  Tm1  1  0.49998880  0.25001181  0.74039263  1.0
  Nb  Nb2  1  0.99999662  0.74995800  0.79435504  1.0
  Nb  Nb3  1  0.00000317  0.25004203  0.20564497  1.0
  O  O4  1  0.76032931  0.51588579  0.93947954  1.0
  O  O5  1  0.23967069  0.48411421  0.06052047  1.0
  O  O6  1  0.23968225  0.98413093  0.93948407  1.0
  O  O7  1  0.76031778  0.01586910  0.06051594  1.0
  O  O8  1  0.74797323  0.90842324  0.57583592  1.0
  O  O9  1  0.25202681  0.09157674  0.42416409  1.0
  O  O10  1  0.25202338  0.59159107  0.57584458  1.0
  O  O11  1  0.74797668  0.40840891  0.42415539  1.0
