# generated using pymatgen
data_TmReF4
_symmetry_space_group_name_H-M   'P 1'
_cell_length_a   5.55048081
_cell_length_b   5.15499451
_cell_length_c   6.57202010
_cell_angle_alpha   89.83216440
_cell_angle_beta   95.17675575
_cell_angle_gamma   98.07914208
_symmetry_Int_Tables_number   1
_chemical_formula_structural   TmReF4
_chemical_formula_sum   'Tm2 Re2 F8'
_cell_volume   185.40840939
_cell_formula_units_Z   2
loop_
 _symmetry_equiv_pos_site_id
 _symmetry_equiv_pos_as_xyz
  1  'x, y, z'
loop_
 _atom_site_type_symbol
 _atom_site_label
 _atom_site_symmetry_multiplicity
 _atom_site_fract_x
 _atom_site_fract_y
 _atom_site_fract_z
 _atom_site_occupancy
  Tm  Tm0  1  0.43515426  0.73788163  0.32285875  1.0
  Tm  Tm1  1  0.56468441  0.26232335  0.67696961  1.0
  Re  Re2  1  0.02450150  0.83025267  0.91097816  1.0
  Re  Re3  1  0.97571894  0.16935551  0.08913403  1.0
  F  F4  1  0.69033695  0.61123604  0.88235072  1.0
  F  F5  1  0.30975479  0.38842063  0.11796719  1.0
  F  F6  1  0.36215925  0.95077960  0.84035354  1.0
  F  F7  1  0.63802260  0.04933689  0.15960036  1.0
  F  F8  1  0.71884609  0.95576016  0.54624419  1.0
  F  F9  1  0.28092381  0.04443279  0.45365020  1.0
  F  F10  1  0.29562601  0.52315879  0.58045055  1.0
  F  F11  1  0.70427139  0.47706193  0.41944270  1.0
