# generated using pymatgen
data_TmSbO4
_symmetry_space_group_name_H-M   'P 1'
_cell_length_a   5.33275440
_cell_length_b   7.62251668
_cell_length_c   7.51358554
_cell_angle_alpha   81.50067238
_cell_angle_beta   90.00061833
_cell_angle_gamma   90.00050868
_symmetry_Int_Tables_number   1
_chemical_formula_structural   TmSbO4
_chemical_formula_sum   'Tm4 Sb4 O16'
_cell_volume   302.06556579
_cell_formula_units_Z   4
loop_
 _symmetry_equiv_pos_site_id
 _symmetry_equiv_pos_as_xyz
  1  'x, y, z'
loop_
 _atom_site_type_symbol
 _atom_site_label
 _atom_site_symmetry_multiplicity
 _atom_site_fract_x
 _atom_site_fract_y
 _atom_site_fract_z
 _atom_site_occupancy
  Tm  Tm0  1  0.72700520  0.85386709  0.38371708  1.0
  Tm  Tm1  1  0.22694296  0.14617796  0.11627355  1.0
  Tm  Tm2  1  0.77305544  0.85382343  0.88372605  1.0
  Tm  Tm3  1  0.27299318  0.14613155  0.61628327  1.0
  Sb  Sb4  1  0.23405955  0.66395162  0.19103688  1.0
  Sb  Sb5  1  0.73409202  0.33603120  0.30894733  1.0
  Sb  Sb6  1  0.76593932  0.33604812  0.80896329  1.0
  Sb  Sb7  1  0.26590686  0.66396909  0.69105252  1.0
  O  O8  1  0.52155133  0.81850969  0.11675044  1.0
  O  O9  1  0.52967163  0.11002444  0.32249618  1.0
  O  O10  1  0.09378588  0.42991733  0.69042281  1.0
  O  O11  1  0.97853246  0.81854405  0.61674668  1.0
  O  O12  1  0.97028387  0.11003766  0.82251416  1.0
  O  O13  1  0.90621349  0.57008268  0.30957887  1.0
  O  O14  1  0.47845032  0.18148732  0.88325011  1.0
  O  O15  1  0.38876087  0.67297752  0.43736643  1.0
  O  O16  1  0.11127644  0.67296387  0.93736983  1.0
  O  O17  1  0.59381140  0.57008655  0.80955839  1.0
  O  O18  1  0.02971743  0.88996273  0.17748783  1.0
  O  O19  1  0.88872277  0.32703838  0.06262985  1.0
  O  O20  1  0.40618803  0.42991349  0.19043992  1.0
  O  O21  1  0.02146933  0.18145909  0.38325267  1.0
  O  O22  1  0.47032960  0.88997518  0.67750189  1.0
  O  O23  1  0.61123861  0.32701997  0.56263398  1.0
