# generated using pymatgen
data_TmSeCl
_symmetry_space_group_name_H-M   'P 1'
_cell_length_a   4.81120896
_cell_length_b   4.81120967
_cell_length_c   4.81121030
_cell_angle_alpha   59.99998496
_cell_angle_beta   59.99999780
_cell_angle_gamma   59.99999311
_symmetry_Int_Tables_number   1
_chemical_formula_structural   TmSeCl
_chemical_formula_sum   'Tm1 Se1 Cl1'
_cell_volume   78.74949304
_cell_formula_units_Z   1
loop_
 _symmetry_equiv_pos_site_id
 _symmetry_equiv_pos_as_xyz
  1  'x, y, z'
loop_
 _atom_site_type_symbol
 _atom_site_label
 _atom_site_symmetry_multiplicity
 _atom_site_fract_x
 _atom_site_fract_y
 _atom_site_fract_z
 _atom_site_occupancy
  Tm  Tm0  1  0.99999992  0.00000003  0.99999999  1.0
  Se  Se1  1  0.75000003  0.74999994  0.75000005  1.0
  Cl  Cl2  1  0.50000004  0.50000003  0.49999996  1.0
