# generated using pymatgen
data_TmSnF4
_symmetry_space_group_name_H-M   'P 1'
_cell_length_a   5.90806319
_cell_length_b   5.80346827
_cell_length_c   6.73957524
_cell_angle_alpha   90.00000834
_cell_angle_beta   89.99998794
_cell_angle_gamma   86.69014761
_symmetry_Int_Tables_number   1
_chemical_formula_structural   TmSnF4
_chemical_formula_sum   'Tm2 Sn2 F8'
_cell_volume   230.69608372
_cell_formula_units_Z   2
loop_
 _symmetry_equiv_pos_site_id
 _symmetry_equiv_pos_as_xyz
  1  'x, y, z'
loop_
 _atom_site_type_symbol
 _atom_site_label
 _atom_site_symmetry_multiplicity
 _atom_site_fract_x
 _atom_site_fract_y
 _atom_site_fract_z
 _atom_site_occupancy
  Tm  Tm0  1  0.49999965  0.75000012  0.36047285  1.0
  Tm  Tm1  1  0.49999996  0.24999988  0.63952690  1.0
  Sn  Sn2  1  0.99999997  0.74999999  0.91999989  1.0
  Sn  Sn3  1  0.00000006  0.24999999  0.08000101  1.0
  F  F4  1  0.71201696  0.32642370  0.87070310  1.0
  F  F5  1  0.28798434  0.67357497  0.12929665  1.0
  F  F6  1  0.28798337  0.17357630  0.87070304  1.0
  F  F7  1  0.71201557  0.82642514  0.12929660  1.0
  F  F8  1  0.68569527  0.92345265  0.58943279  1.0
  F  F9  1  0.31430479  0.07654735  0.41056720  1.0
  F  F10  1  0.31430507  0.57654741  0.58943339  1.0
  F  F11  1  0.68569498  0.42345250  0.41056657  1.0
