# generated using pymatgen
data_TmTlO2
_symmetry_space_group_name_H-M   'P 1'
_cell_length_a   4.34418982
_cell_length_b   4.34419071
_cell_length_c   4.34419307
_cell_angle_alpha   59.99991701
_cell_angle_beta   59.99989852
_cell_angle_gamma   59.99993509
_symmetry_Int_Tables_number   1
_chemical_formula_structural   TmTlO2
_chemical_formula_sum   'Tm1 Tl1 O2'
_cell_volume   57.97102485
_cell_formula_units_Z   1
loop_
 _symmetry_equiv_pos_site_id
 _symmetry_equiv_pos_as_xyz
  1  'x, y, z'
loop_
 _atom_site_type_symbol
 _atom_site_label
 _atom_site_symmetry_multiplicity
 _atom_site_fract_x
 _atom_site_fract_y
 _atom_site_fract_z
 _atom_site_occupancy
  Tm  Tm0  1  0.75000025  0.74999998  0.75000024  1.0
  Tl  Tl1  1  0.25000077  0.25000083  0.25000071  1.0
  O  O2  1  0.49999895  0.49999917  0.49999910  1.0
  O  O3  1  0.00000004  0.00000001  0.99999996  1.0
