# generated using pymatgen
data_TmVO4
_symmetry_space_group_name_H-M   'P 1'
_cell_length_a   4.94583085
_cell_length_b   5.17672075
_cell_length_c   5.36652182
_cell_angle_alpha   90.00261293
_cell_angle_beta   90.00377390
_cell_angle_gamma   82.39360983
_symmetry_Int_Tables_number   1
_chemical_formula_structural   TmVO4
_chemical_formula_sum   'Tm2 V2 O8'
_cell_volume   136.19103879
_cell_formula_units_Z   2
loop_
 _symmetry_equiv_pos_site_id
 _symmetry_equiv_pos_as_xyz
  1  'x, y, z'
loop_
 _atom_site_type_symbol
 _atom_site_label
 _atom_site_symmetry_multiplicity
 _atom_site_fract_x
 _atom_site_fract_y
 _atom_site_fract_z
 _atom_site_occupancy
  Tm  Tm0  1  0.49999868  0.75001373  0.25461922  1.0
  Tm  Tm1  1  0.50000109  0.24998610  0.74538531  1.0
  V  V2  1  0.99997472  0.75003946  0.81036380  1.0
  V  V3  1  0.00003339  0.24995880  0.18962568  1.0
  O  O4  1  0.76873457  0.51049927  0.93135914  1.0
  O  O5  1  0.23126391  0.48950122  0.06864374  1.0
  O  O6  1  0.23126635  0.98947415  0.93136739  1.0
  O  O7  1  0.76873332  0.01052248  0.06862875  1.0
  O  O8  1  0.75457896  0.88756360  0.59676004  1.0
  O  O9  1  0.24542508  0.11243983  0.40324267  1.0
  O  O10  1  0.24546099  0.61241922  0.59674866  1.0
  O  O11  1  0.75452894  0.38758213  0.40325561  1.0
