# generated using pymatgen
data_VNiH4
_symmetry_space_group_name_H-M   'P 1'
_cell_length_a   4.08179499
_cell_length_b   4.29112432
_cell_length_c   4.29287299
_cell_angle_alpha   90.00000282
_cell_angle_beta   89.99999804
_cell_angle_gamma   94.95439372
_symmetry_Int_Tables_number   1
_chemical_formula_structural   VNiH4
_chemical_formula_sum   'V2 Ni2 H8'
_cell_volume   74.91083810
_cell_formula_units_Z   2
loop_
 _symmetry_equiv_pos_site_id
 _symmetry_equiv_pos_as_xyz
  1  'x, y, z'
loop_
 _atom_site_type_symbol
 _atom_site_label
 _atom_site_symmetry_multiplicity
 _atom_site_fract_x
 _atom_site_fract_y
 _atom_site_fract_z
 _atom_site_occupancy
  V  V0  1  0.00000004  0.25000003  0.19968775  1.0
  V  V1  1  0.00000015  0.75000002  0.80030786  1.0
  Ni  Ni2  1  0.49999991  0.24999996  0.67341665  1.0
  Ni  Ni3  1  0.49999999  0.75000002  0.32660152  1.0
  H  H4  1  0.76068820  0.00939584  0.52350786  1.0
  H  H5  1  0.23931179  0.49060417  0.52350783  1.0
  H  H6  1  0.23930875  0.99059839  0.47649567  1.0
  H  H7  1  0.76069125  0.50940162  0.47649569  1.0
  H  H8  1  0.72911837  0.94302504  0.04329097  1.0
  H  H9  1  0.27088162  0.55697500  0.04329093  1.0
  H  H10  1  0.27088171  0.05697326  0.95669963  1.0
  H  H11  1  0.72911822  0.44302665  0.95669965  1.0
