# generated using pymatgen
data_VOF2
_symmetry_space_group_name_H-M   'P 1'
_cell_length_a   6.14138300
_cell_length_b   3.71464554
_cell_length_c   5.34772176
_cell_angle_alpha   110.37378073
_cell_angle_beta   106.62355233
_cell_angle_gamma   89.99917405
_symmetry_Int_Tables_number   1
_chemical_formula_structural   VOF2
_chemical_formula_sum   'V2 O2 F4'
_cell_volume   108.91045863
_cell_formula_units_Z   2
loop_
 _symmetry_equiv_pos_site_id
 _symmetry_equiv_pos_as_xyz
  1  'x, y, z'
loop_
 _atom_site_type_symbol
 _atom_site_label
 _atom_site_symmetry_multiplicity
 _atom_site_fract_x
 _atom_site_fract_y
 _atom_site_fract_z
 _atom_site_occupancy
  V  V0  1  0.99999916  0.06063663  0.00000252  1.0
  V  V1  1  0.50000081  0.93936409  0.99999748  1.0
  O  O2  1  0.49998870  0.48760225  0.99999829  1.0
  O  O3  1  0.00001133  0.51240002  0.00000172  1.0
  F  F4  1  0.18487461  0.86858819  0.73854974  1.0
  F  F5  1  0.31512608  0.13141026  0.26145027  1.0
  F  F6  1  0.68487700  0.86939294  0.73855924  1.0
  F  F7  1  0.81512231  0.13060562  0.26144073  1.0
