# generated using pymatgen
data_VSnF4
_symmetry_space_group_name_H-M   'P 1'
_cell_length_a   5.26005934
_cell_length_b   6.20824456
_cell_length_c   5.65737954
_cell_angle_alpha   90.00000294
_cell_angle_beta   88.35071085
_cell_angle_gamma   89.99999852
_symmetry_Int_Tables_number   1
_chemical_formula_structural   VSnF4
_chemical_formula_sum   'V2 Sn2 F8'
_cell_volume   184.66935029
_cell_formula_units_Z   2
loop_
 _symmetry_equiv_pos_site_id
 _symmetry_equiv_pos_as_xyz
  1  'x, y, z'
loop_
 _atom_site_type_symbol
 _atom_site_label
 _atom_site_symmetry_multiplicity
 _atom_site_fract_x
 _atom_site_fract_y
 _atom_site_fract_z
 _atom_site_occupancy
  V  V0  1  0.49999997  0.35281093  0.25000000  1.0
  V  V1  1  0.50000004  0.64718906  0.75000000  1.0
  Sn  Sn2  1  0.00000003  0.82100609  0.24999998  1.0
  Sn  Sn3  1  0.99999998  0.17899398  0.75000004  1.0
  F  F4  1  0.25138334  0.11618901  0.39490457  1.0
  F  F5  1  0.74861657  0.11618898  0.10509536  1.0
  F  F6  1  0.74861680  0.88381093  0.60509560  1.0
  F  F7  1  0.25138326  0.88381092  0.89490443  1.0
  F  F8  1  0.28808170  0.59250365  0.44250692  1.0
  F  F9  1  0.71191833  0.59250362  0.05749311  1.0
  F  F10  1  0.71191831  0.40749640  0.55749307  1.0
  F  F11  1  0.28808167  0.40749644  0.94250692  1.0
