# generated using pymatgen
data_YAgBr4
_symmetry_space_group_name_H-M   'P 1'
_cell_length_a   6.98137135
_cell_length_b   7.15115053
_cell_length_c   6.98108546
_cell_angle_alpha   89.41410219
_cell_angle_beta   89.99941165
_cell_angle_gamma   89.99875385
_symmetry_Int_Tables_number   1
_chemical_formula_structural   YAgBr4
_chemical_formula_sum   'Y2 Ag2 Br8'
_cell_volume   348.51133423
_cell_formula_units_Z   2
loop_
 _symmetry_equiv_pos_site_id
 _symmetry_equiv_pos_as_xyz
  1  'x, y, z'
loop_
 _atom_site_type_symbol
 _atom_site_label
 _atom_site_symmetry_multiplicity
 _atom_site_fract_x
 _atom_site_fract_y
 _atom_site_fract_z
 _atom_site_occupancy
  Y  Y0  1  0.74904066  0.49999998  0.24999954  1.0
  Y  Y1  1  0.25095934  0.50000002  0.75000046  1.0
  Ag  Ag2  1  0.75611845  0.99999985  0.75000061  1.0
  Ag  Ag3  1  0.24388155  0.00000015  0.24999939  1.0
  Br  Br4  1  0.44146744  0.27781072  0.06120999  1.0
  Br  Br5  1  0.44146720  0.72218917  0.43879059  1.0
  Br  Br6  1  0.94204531  0.27703220  0.94470787  1.0
  Br  Br7  1  0.94204496  0.72296798  0.55529168  1.0
  Br  Br8  1  0.05795469  0.72296779  0.05529213  1.0
  Br  Br9  1  0.05795504  0.27703203  0.44470832  1.0
  Br  Br10  1  0.55853280  0.27781083  0.56120942  1.0
  Br  Br11  1  0.55853256  0.72218928  0.93879001  1.0
