# generated using pymatgen
data_YAuCl4
_symmetry_space_group_name_H-M   'P 1'
_cell_length_a   6.56247180
_cell_length_b   6.85692669
_cell_length_c   6.56233149
_cell_angle_alpha   90.01852782
_cell_angle_beta   90.00025919
_cell_angle_gamma   90.00130741
_symmetry_Int_Tables_number   1
_chemical_formula_structural   YAuCl4
_chemical_formula_sum   'Y2 Au2 Cl8'
_cell_volume   295.29432330
_cell_formula_units_Z   2
loop_
 _symmetry_equiv_pos_site_id
 _symmetry_equiv_pos_as_xyz
  1  'x, y, z'
loop_
 _atom_site_type_symbol
 _atom_site_label
 _atom_site_symmetry_multiplicity
 _atom_site_fract_x
 _atom_site_fract_y
 _atom_site_fract_z
 _atom_site_occupancy
  Y  Y0  1  0.74803407  0.50000001  0.25000008  1.0
  Y  Y1  1  0.25196593  0.49999999  0.74999992  1.0
  Au  Au2  1  0.75674420  0.99999996  0.74999918  1.0
  Au  Au3  1  0.24325578  0.00000004  0.25000083  1.0
  Cl  Cl4  1  0.43724015  0.28414877  0.06337049  1.0
  Cl  Cl5  1  0.43723948  0.71585172  0.43663026  1.0
  Cl  Cl6  1  0.93738825  0.28402961  0.93802105  1.0
  Cl  Cl7  1  0.93738650  0.71596938  0.56197917  1.0
  Cl  Cl8  1  0.06261175  0.71597039  0.06197894  1.0
  Cl  Cl9  1  0.06261351  0.28403062  0.43802083  1.0
  Cl  Cl10  1  0.56276053  0.28414827  0.56336973  1.0
  Cl  Cl11  1  0.56275985  0.71585124  0.93662951  1.0
