# generated using pymatgen
data_YAuI4
_symmetry_space_group_name_H-M   'P 1'
_cell_length_a   7.57834935
_cell_length_b   7.40887064
_cell_length_c   7.57909155
_cell_angle_alpha   89.81702090
_cell_angle_beta   90.00000925
_cell_angle_gamma   90.00001922
_symmetry_Int_Tables_number   1
_chemical_formula_structural   YAuI4
_chemical_formula_sum   'Y2 Au2 I8'
_cell_volume   425.54115898
_cell_formula_units_Z   2
loop_
 _symmetry_equiv_pos_site_id
 _symmetry_equiv_pos_as_xyz
  1  'x, y, z'
loop_
 _atom_site_type_symbol
 _atom_site_label
 _atom_site_symmetry_multiplicity
 _atom_site_fract_x
 _atom_site_fract_y
 _atom_site_fract_z
 _atom_site_occupancy
  Y  Y0  1  0.74837462  0.49999994  0.25000008  1.0
  Y  Y1  1  0.25162543  0.50000006  0.74999998  1.0
  Au  Au2  1  0.75520625  0.00000009  0.75000000  1.0
  Au  Au3  1  0.24479371  0.99999997  0.24999994  1.0
  I  I4  1  0.43645770  0.27167490  0.06506800  1.0
  I  I5  1  0.43645751  0.72832507  0.43493198  1.0
  I  I6  1  0.93712148  0.27117890  0.93867189  1.0
  I  I7  1  0.93712144  0.72882104  0.56132790  1.0
  I  I8  1  0.06287859  0.72882110  0.06132803  1.0
  I  I9  1  0.06287848  0.27117891  0.43867210  1.0
  I  I10  1  0.56354241  0.27167484  0.56506807  1.0
  I  I11  1  0.56354237  0.72832517  0.93493202  1.0
