# generated using pymatgen
data_Yb2IN
_symmetry_space_group_name_H-M   'P 1'
_cell_length_a   4.92826301
_cell_length_b   4.92826409
_cell_length_c   4.92826409
_cell_angle_alpha   60.00000012
_cell_angle_beta   59.99998511
_cell_angle_gamma   59.99999443
_symmetry_Int_Tables_number   1
_chemical_formula_structural   Yb2IN
_chemical_formula_sum   'Yb2 I1 N1'
_cell_volume   84.63826593
_cell_formula_units_Z   1
loop_
 _symmetry_equiv_pos_site_id
 _symmetry_equiv_pos_as_xyz
  1  'x, y, z'
loop_
 _atom_site_type_symbol
 _atom_site_label
 _atom_site_symmetry_multiplicity
 _atom_site_fract_x
 _atom_site_fract_y
 _atom_site_fract_z
 _atom_site_occupancy
  Yb  Yb0  1  0.25000001  0.25000000  0.24999999  1.0
  Yb  Yb1  1  0.75000002  0.75000000  0.75000001  1.0
  I  I2  1  0.49999999  0.50000000  0.50000000  1.0
  N  N3  1  0.99999998  0.00000000  0.00000000  1.0
