# generated using pymatgen
data_YbBrO
_symmetry_space_group_name_H-M   'P 1'
_cell_length_a   4.31170868
_cell_length_b   4.31153576
_cell_length_c   4.31184545
_cell_angle_alpha   60.00288894
_cell_angle_beta   60.00412614
_cell_angle_gamma   60.00474439
_symmetry_Int_Tables_number   1
_chemical_formula_structural   YbBrO
_chemical_formula_sum   'Yb1 Br1 O1'
_cell_volume   56.68500438
_cell_formula_units_Z   1
loop_
 _symmetry_equiv_pos_site_id
 _symmetry_equiv_pos_as_xyz
  1  'x, y, z'
loop_
 _atom_site_type_symbol
 _atom_site_label
 _atom_site_symmetry_multiplicity
 _atom_site_fract_x
 _atom_site_fract_y
 _atom_site_fract_z
 _atom_site_occupancy
  Yb  Yb0  1  0.99999894  0.99999906  0.99999983  1.0
  Br  Br1  1  0.49999814  0.49999905  0.49999909  1.0
  O  O2  1  0.25000292  0.25000189  0.25000108  1.0
