# generated using pymatgen
data_YbCdBr4
_symmetry_space_group_name_H-M   'P 1'
_cell_length_a   8.00296395
_cell_length_b   6.56131893
_cell_length_c   7.15726629
_cell_angle_alpha   88.41065191
_cell_angle_beta   90.00004581
_cell_angle_gamma   89.99999602
_symmetry_Int_Tables_number   1
_chemical_formula_structural   YbCdBr4
_chemical_formula_sum   'Yb2 Cd2 Br8'
_cell_volume   375.68345944
_cell_formula_units_Z   2
loop_
 _symmetry_equiv_pos_site_id
 _symmetry_equiv_pos_as_xyz
  1  'x, y, z'
loop_
 _atom_site_type_symbol
 _atom_site_label
 _atom_site_symmetry_multiplicity
 _atom_site_fract_x
 _atom_site_fract_y
 _atom_site_fract_z
 _atom_site_occupancy
  Yb  Yb0  1  0.65182929  0.49999997  0.25000010  1.0
  Yb  Yb1  1  0.34817075  0.50000001  0.74999998  1.0
  Cd  Cd2  1  0.14403770  0.00000002  0.25000010  1.0
  Cd  Cd3  1  0.85596234  0.00000001  0.74999991  1.0
  Br  Br4  1  0.10854929  0.76288723  0.93268789  1.0
  Br  Br5  1  0.10854911  0.23711281  0.56731204  1.0
  Br  Br6  1  0.89145074  0.23711285  0.06731204  1.0
  Br  Br7  1  0.89145085  0.76288729  0.43268792  1.0
  Br  Br8  1  0.39046285  0.74665851  0.41549368  1.0
  Br  Br9  1  0.39046276  0.25334150  0.08450639  1.0
  Br  Br10  1  0.60953707  0.25334132  0.58450630  1.0
  Br  Br11  1  0.60953726  0.74665847  0.91549364  1.0
