# generated using pymatgen
data_YbCdH4
_symmetry_space_group_name_H-M   'P 1'
_cell_length_a   5.54400424
_cell_length_b   4.79362260
_cell_length_c   5.51498248
_cell_angle_alpha   89.83427062
_cell_angle_beta   90.00055701
_cell_angle_gamma   90.00004812
_symmetry_Int_Tables_number   1
_chemical_formula_structural   YbCdH4
_chemical_formula_sum   'Yb2 Cd2 H8'
_cell_volume   146.56481132
_cell_formula_units_Z   2
loop_
 _symmetry_equiv_pos_site_id
 _symmetry_equiv_pos_as_xyz
  1  'x, y, z'
loop_
 _atom_site_type_symbol
 _atom_site_label
 _atom_site_symmetry_multiplicity
 _atom_site_fract_x
 _atom_site_fract_y
 _atom_site_fract_z
 _atom_site_occupancy
  Yb  Yb0  1  0.74938690  0.49999999  0.25000072  1.0
  Yb  Yb1  1  0.25061310  0.50000001  0.74999928  1.0
  Cd  Cd2  1  0.24782912  0.99999560  0.24999949  1.0
  Cd  Cd3  1  0.75217088  0.00000440  0.75000051  1.0
  H  H4  1  0.07046010  0.73627274  0.06932916  1.0
  H  H5  1  0.07045770  0.26373274  0.43067280  1.0
  H  H6  1  0.92953990  0.26372726  0.93067084  1.0
  H  H7  1  0.92954230  0.73626726  0.56932720  1.0
  H  H8  1  0.42898338  0.73711543  0.42819925  1.0
  H  H9  1  0.42898575  0.26288858  0.07179720  1.0
  H  H10  1  0.57101662  0.26288457  0.57180075  1.0
  H  H11  1  0.57101425  0.73711142  0.92820279  1.0
