# generated using pymatgen
data_YbCoF4
_symmetry_space_group_name_H-M   'P 1'
_cell_length_a   6.32867275
_cell_length_b   6.32842986
_cell_length_c   6.32869117
_cell_angle_alpha   33.86938353
_cell_angle_beta   33.87034662
_cell_angle_gamma   33.87192218
_symmetry_Int_Tables_number   1
_chemical_formula_structural   YbCoF4
_chemical_formula_sum   'Yb1 Co1 F4'
_cell_volume   70.16118359
_cell_formula_units_Z   1
loop_
 _symmetry_equiv_pos_site_id
 _symmetry_equiv_pos_as_xyz
  1  'x, y, z'
loop_
 _atom_site_type_symbol
 _atom_site_label
 _atom_site_symmetry_multiplicity
 _atom_site_fract_x
 _atom_site_fract_y
 _atom_site_fract_z
 _atom_site_occupancy
  Yb  Yb0  1  0.00000000  0.99999999  0.00000001  1.0
  Co  Co1  1  0.50000001  0.50000000  0.49999999  1.0
  F  F2  1  0.62080908  0.62081066  0.62081806  1.0
  F  F3  1  0.12889975  0.12889467  0.12889572  1.0
  F  F4  1  0.87110025  0.87110534  0.87110427  1.0
  F  F5  1  0.37919092  0.37918933  0.37918195  1.0
