# generated using pymatgen
data_YbCoBr4
_symmetry_space_group_name_H-M   'P 1'
_cell_length_a   6.88215998
_cell_length_b   6.84900701
_cell_length_c   6.75248864
_cell_angle_alpha   84.62695003
_cell_angle_beta   90.00047216
_cell_angle_gamma   90.00253781
_symmetry_Int_Tables_number   1
_chemical_formula_structural   YbCoBr4
_chemical_formula_sum   'Yb2 Co2 Br8'
_cell_volume   316.88654093
_cell_formula_units_Z   2
loop_
 _symmetry_equiv_pos_site_id
 _symmetry_equiv_pos_as_xyz
  1  'x, y, z'
loop_
 _atom_site_type_symbol
 _atom_site_label
 _atom_site_symmetry_multiplicity
 _atom_site_fract_x
 _atom_site_fract_y
 _atom_site_fract_z
 _atom_site_occupancy
  Yb  Yb0  1  0.99999998  0.00000002  0.99999998  1.0
  Yb  Yb1  1  0.50000000  0.50000000  0.00000000  1.0
  Co  Co2  1  0.00000000  0.50000001  0.50000000  1.0
  Co  Co3  1  0.49999998  0.99999999  0.50000000  1.0
  Br  Br4  1  0.64472461  0.12268491  0.17378076  1.0
  Br  Br5  1  0.14472135  0.37731782  0.82621478  1.0
  Br  Br6  1  0.33482658  0.69224041  0.35334125  1.0
  Br  Br7  1  0.83482193  0.80775809  0.64666651  1.0
  Br  Br8  1  0.35527538  0.87731509  0.82621927  1.0
  Br  Br9  1  0.85527867  0.62268219  0.17378520  1.0
  Br  Br10  1  0.66517343  0.30775956  0.64665879  1.0
  Br  Br11  1  0.16517807  0.19224192  0.35333348  1.0
