# generated using pymatgen
data_YbHf2F10
_symmetry_space_group_name_H-M   'P 1'
_cell_length_a   3.55910734
_cell_length_b   3.55911799
_cell_length_c   13.90735071
_cell_angle_alpha   89.99920356
_cell_angle_beta   90.00000632
_cell_angle_gamma   89.99995042
_symmetry_Int_Tables_number   1
_chemical_formula_structural   YbHf2F10
_chemical_formula_sum   'Yb1 Hf2 F10'
_cell_volume   176.16834668
_cell_formula_units_Z   1
loop_
 _symmetry_equiv_pos_site_id
 _symmetry_equiv_pos_as_xyz
  1  'x, y, z'
loop_
 _atom_site_type_symbol
 _atom_site_label
 _atom_site_symmetry_multiplicity
 _atom_site_fract_x
 _atom_site_fract_y
 _atom_site_fract_z
 _atom_site_occupancy
  Yb  Yb0  1  0.00000000  0.99999994  0.99999970  1.0
  Hf  Hf1  1  0.99999952  0.99998693  0.70175655  1.0
  Hf  Hf2  1  0.00000195  0.00001229  0.29824638  1.0
  F  F3  1  0.50000063  0.50000616  0.76968896  1.0
  F  F4  1  0.49999773  0.49999471  0.23031097  1.0
  F  F5  1  0.49999981  0.50000009  0.50000013  1.0
  F  F6  1  0.49999953  0.00000022  0.63746044  1.0
  F  F7  1  0.00000034  0.50000450  0.63746177  1.0
  F  F8  1  0.50000145  0.99999987  0.36253887  1.0
  F  F9  1  0.99999950  0.49999498  0.36253754  1.0
  F  F10  1  0.99999989  0.00000037  0.84505649  1.0
  F  F11  1  0.99999962  0.99999990  0.15494210  1.0
  F  F12  1  0.50000003  0.50000003  0.00000011  1.0
