# generated using pymatgen
data_YbMnI4
_symmetry_space_group_name_H-M   'P 1'
_cell_length_a   8.50770389
_cell_length_b   6.98578208
_cell_length_c   7.52730114
_cell_angle_alpha   88.54768229
_cell_angle_beta   89.99999942
_cell_angle_gamma   90.00000138
_symmetry_Int_Tables_number   1
_chemical_formula_structural   YbMnI4
_chemical_formula_sum   'Yb2 Mn2 I8'
_cell_volume   447.22611656
_cell_formula_units_Z   2
loop_
 _symmetry_equiv_pos_site_id
 _symmetry_equiv_pos_as_xyz
  1  'x, y, z'
loop_
 _atom_site_type_symbol
 _atom_site_label
 _atom_site_symmetry_multiplicity
 _atom_site_fract_x
 _atom_site_fract_y
 _atom_site_fract_z
 _atom_site_occupancy
  Yb  Yb0  1  0.35448128  0.50000000  0.75000001  1.0
  Yb  Yb1  1  0.64551872  0.50000001  0.25000001  1.0
  Mn  Mn2  1  0.87105279  0.99999998  0.74999995  1.0
  Mn  Mn3  1  0.12894706  0.00000004  0.25000002  1.0
  I  I4  1  0.10837598  0.77033575  0.93517275  1.0
  I  I5  1  0.89162404  0.77033565  0.43517280  1.0
  I  I6  1  0.62303812  0.75451479  0.90742072  1.0
  I  I7  1  0.37696196  0.75451481  0.40742074  1.0
  I  I8  1  0.62303810  0.24548519  0.59257926  1.0
  I  I9  1  0.37696197  0.24548518  0.09257930  1.0
  I  I10  1  0.10837597  0.22966425  0.56482725  1.0
  I  I11  1  0.89162401  0.22966436  0.06482720  1.0
