# generated using pymatgen
data_YbPbCl4
_symmetry_space_group_name_H-M   'P 1'
_cell_length_a   6.85193384
_cell_length_b   7.05225958
_cell_length_c   7.13091579
_cell_angle_alpha   90.00014644
_cell_angle_beta   90.00007801
_cell_angle_gamma   98.63388471
_symmetry_Int_Tables_number   1
_chemical_formula_structural   YbPbCl4
_chemical_formula_sum   'Yb2 Pb2 Cl8'
_cell_volume   340.67254595
_cell_formula_units_Z   2
loop_
 _symmetry_equiv_pos_site_id
 _symmetry_equiv_pos_as_xyz
  1  'x, y, z'
loop_
 _atom_site_type_symbol
 _atom_site_label
 _atom_site_symmetry_multiplicity
 _atom_site_fract_x
 _atom_site_fract_y
 _atom_site_fract_z
 _atom_site_occupancy
  Yb  Yb0  1  0.99999071  0.74999507  0.82866235  1.0
  Yb  Yb1  1  0.00000929  0.25000493  0.17133766  1.0
  Pb  Pb2  1  0.50000599  0.75000334  0.28386026  1.0
  Pb  Pb3  1  0.49999401  0.24999666  0.71613984  1.0
  Cl  Cl4  1  0.75609186  0.99840877  0.94480740  1.0
  Cl  Cl5  1  0.24390819  0.00159126  0.05519258  1.0
  Cl  Cl6  1  0.24390648  0.50160005  0.94478007  1.0
  Cl  Cl7  1  0.75609349  0.49839992  0.05521992  1.0
  Cl  Cl8  1  0.74757237  0.58829739  0.56005523  1.0
  Cl  Cl9  1  0.25242773  0.41170256  0.43994474  1.0
  Cl  Cl10  1  0.25243587  0.91169726  0.56005150  1.0
  Cl  Cl11  1  0.74756402  0.08830278  0.43994846  1.0
