# generated using pymatgen
data_YbSmI4
_symmetry_space_group_name_H-M   'P 1'
_cell_length_a   7.68900029
_cell_length_b   7.90085850
_cell_length_c   7.90072051
_cell_angle_alpha   90.00009852
_cell_angle_beta   89.99928594
_cell_angle_gamma   103.34496575
_symmetry_Int_Tables_number   1
_chemical_formula_structural   YbSmI4
_chemical_formula_sum   'Yb2 Sm2 I8'
_cell_volume   467.00638772
_cell_formula_units_Z   2
loop_
 _symmetry_equiv_pos_site_id
 _symmetry_equiv_pos_as_xyz
  1  'x, y, z'
loop_
 _atom_site_type_symbol
 _atom_site_label
 _atom_site_symmetry_multiplicity
 _atom_site_fract_x
 _atom_site_fract_y
 _atom_site_fract_z
 _atom_site_occupancy
  Yb  Yb0  1  0.49999995  0.25000166  0.66044070  1.0
  Yb  Yb1  1  0.50000006  0.74999836  0.33955853  1.0
  Sm  Sm2  1  0.99999922  0.74999825  0.76460106  1.0
  Sm  Sm3  1  0.00000077  0.25000173  0.23539777  1.0
  I  I4  1  0.76838416  0.01850713  0.56530789  1.0
  I  I5  1  0.23161882  0.48149497  0.56530619  1.0
  I  I6  1  0.23161519  0.98149341  0.43469334  1.0
  I  I7  1  0.76838186  0.51850454  0.43469507  1.0
  I  I8  1  0.23431320  0.59706594  0.05974570  1.0
  I  I9  1  0.76568662  0.90293393  0.05974520  1.0
  I  I10  1  0.76568653  0.40293457  0.94025403  1.0
  I  I11  1  0.23431360  0.09706552  0.94025451  1.0
