# generated using pymatgen
data_YbSmH4
_symmetry_space_group_name_H-M   'P 1'
_cell_length_a   5.36528381
_cell_length_b   5.36603809
_cell_length_c   5.37130418
_cell_angle_alpha   89.99999913
_cell_angle_beta   90.00000072
_cell_angle_gamma   90.10067316
_symmetry_Int_Tables_number   1
_chemical_formula_structural   YbSmH4
_chemical_formula_sum   'Yb2 Sm2 H8'
_cell_volume   154.64131288
_cell_formula_units_Z   2
loop_
 _symmetry_equiv_pos_site_id
 _symmetry_equiv_pos_as_xyz
  1  'x, y, z'
loop_
 _atom_site_type_symbol
 _atom_site_label
 _atom_site_symmetry_multiplicity
 _atom_site_fract_x
 _atom_site_fract_y
 _atom_site_fract_z
 _atom_site_occupancy
  Yb  Yb0  1  0.99999999  0.74999999  0.74953835  1.0
  Yb  Yb1  1  0.00000002  0.25000000  0.25046166  1.0
  Sm  Sm2  1  0.50000000  0.25000001  0.74981392  1.0
  Sm  Sm3  1  0.50000000  0.74999999  0.25018606  1.0
  H  H4  1  0.74809326  0.00067984  0.49901623  1.0
  H  H5  1  0.25190674  0.49932016  0.49901622  1.0
  H  H6  1  0.25190674  0.99932017  0.50098378  1.0
  H  H7  1  0.74809326  0.50067983  0.50098378  1.0
  H  H8  1  0.25212681  0.49944311  0.99930669  1.0
  H  H9  1  0.74787319  0.00055688  0.99930669  1.0
  H  H10  1  0.74787319  0.50055690  0.00069331  1.0
  H  H11  1  0.25212681  0.99944310  0.00069331  1.0
