# generated using pymatgen
data_YbTeI
_symmetry_space_group_name_H-M   'P 1'
_cell_length_a   5.49902488
_cell_length_b   5.49900080
_cell_length_c   5.49899067
_cell_angle_alpha   59.99999477
_cell_angle_beta   60.00017134
_cell_angle_gamma   60.00022164
_symmetry_Int_Tables_number   1
_chemical_formula_structural   YbTeI
_chemical_formula_sum   'Yb1 Te1 I1'
_cell_volume   117.58142660
_cell_formula_units_Z   1
loop_
 _symmetry_equiv_pos_site_id
 _symmetry_equiv_pos_as_xyz
  1  'x, y, z'
loop_
 _atom_site_type_symbol
 _atom_site_label
 _atom_site_symmetry_multiplicity
 _atom_site_fract_x
 _atom_site_fract_y
 _atom_site_fract_z
 _atom_site_occupancy
  Yb  Yb0  1  0.49999994  0.50000003  0.50000000  1.0
  Te  Te1  1  0.25000011  0.24999999  0.24999995  1.0
  I  I2  1  0.99999995  0.99999998  0.00000005  1.0
