# generated using pymatgen
data_YClO
_symmetry_space_group_name_H-M   'P 1'
_cell_length_a   4.12688163
_cell_length_b   4.12688170
_cell_length_c   4.12688183
_cell_angle_alpha   59.99998988
_cell_angle_beta   59.99998644
_cell_angle_gamma   59.99999169
_symmetry_Int_Tables_number   1
_chemical_formula_structural   YClO
_chemical_formula_sum   'Y1 Cl1 O1'
_cell_volume   49.69937904
_cell_formula_units_Z   1
loop_
 _symmetry_equiv_pos_site_id
 _symmetry_equiv_pos_as_xyz
  1  'x, y, z'
loop_
 _atom_site_type_symbol
 _atom_site_label
 _atom_site_symmetry_multiplicity
 _atom_site_fract_x
 _atom_site_fract_y
 _atom_site_fract_z
 _atom_site_occupancy
  Y  Y0  1  0.99999999  0.00000001  0.99999999  1.0
  Cl  Cl1  1  0.50000002  0.49999999  0.50000002  1.0
  O  O2  1  0.74999999  0.75000000  0.74999999  1.0
