# generated using pymatgen
data_YHI2
_symmetry_space_group_name_H-M   'P 1'
_cell_length_a   4.19239497
_cell_length_b   8.80391121
_cell_length_c   7.21744016
_cell_angle_alpha   78.76020990
_cell_angle_beta   89.99946621
_cell_angle_gamma   89.99932071
_symmetry_Int_Tables_number   1
_chemical_formula_structural   YHI2
_chemical_formula_sum   'Y2 H2 I4'
_cell_volume   261.28252411
_cell_formula_units_Z   2
loop_
 _symmetry_equiv_pos_site_id
 _symmetry_equiv_pos_as_xyz
  1  'x, y, z'
loop_
 _atom_site_type_symbol
 _atom_site_label
 _atom_site_symmetry_multiplicity
 _atom_site_fract_x
 _atom_site_fract_y
 _atom_site_fract_z
 _atom_site_occupancy
  Y  Y0  1  0.49999176  0.97301746  0.77350196  1.0
  Y  Y1  1  0.50001031  0.02698255  0.22649806  1.0
  H  H2  1  0.99999792  0.00000000  0.99999998  1.0
  H  H3  1  0.50000019  0.99999998  0.49999999  1.0
  I  I4  1  0.00000056  0.23010394  0.37959986  1.0
  I  I5  1  0.49999711  0.28812330  0.87540371  1.0
  I  I6  1  0.50000180  0.71187671  0.12459631  1.0
  I  I7  1  0.00000035  0.76989606  0.62040014  1.0
