# generated using pymatgen
data_YIF2
_symmetry_space_group_name_H-M   'P 1'
_cell_length_a   3.96981887
_cell_length_b   7.32928928
_cell_length_c   6.73577677
_cell_angle_alpha   89.93549921
_cell_angle_beta   90.00096852
_cell_angle_gamma   90.00519137
_symmetry_Int_Tables_number   1
_chemical_formula_structural   YIF2
_chemical_formula_sum   'Y2 I2 F4'
_cell_volume   195.98370507
_cell_formula_units_Z   2
loop_
 _symmetry_equiv_pos_site_id
 _symmetry_equiv_pos_as_xyz
  1  'x, y, z'
loop_
 _atom_site_type_symbol
 _atom_site_label
 _atom_site_symmetry_multiplicity
 _atom_site_fract_x
 _atom_site_fract_y
 _atom_site_fract_z
 _atom_site_occupancy
  Y  Y0  1  0.00003124  0.99999987  0.99999999  1.0
  Y  Y1  1  0.50001814  0.00000010  0.50000000  1.0
  I  I2  1  0.49992750  0.66194720  0.75195123  1.0
  I  I3  1  0.49994396  0.33805284  0.24804866  1.0
  F  F4  1  0.00001828  0.06211344  0.66208942  1.0
  F  F5  1  0.50003110  0.10109690  0.85043334  1.0
  F  F6  1  0.50001642  0.89890298  0.14956676  1.0
  F  F7  1  0.00001336  0.93788666  0.33791058  1.0
