# generated using pymatgen
data_YSbO4
_symmetry_space_group_name_H-M   'P 1'
_cell_length_a   5.38812466
_cell_length_b   7.67060592
_cell_length_c   7.56032011
_cell_angle_alpha   81.22654165
_cell_angle_beta   90.00023602
_cell_angle_gamma   90.00552098
_symmetry_Int_Tables_number   1
_chemical_formula_structural   YSbO4
_chemical_formula_sum   'Y4 Sb4 O16'
_cell_volume   308.81323718
_cell_formula_units_Z   4
loop_
 _symmetry_equiv_pos_site_id
 _symmetry_equiv_pos_as_xyz
  1  'x, y, z'
loop_
 _atom_site_type_symbol
 _atom_site_label
 _atom_site_symmetry_multiplicity
 _atom_site_fract_x
 _atom_site_fract_y
 _atom_site_fract_z
 _atom_site_occupancy
  Y  Y0  1  0.72585672  0.85398120  0.38865338  1.0
  Y  Y1  1  0.22578907  0.14608348  0.11133542  1.0
  Y  Y2  1  0.77420927  0.85391836  0.88866426  1.0
  Y  Y3  1  0.27414159  0.14601693  0.61134695  1.0
  Sb  Sb4  1  0.23285997  0.66326027  0.19327952  1.0
  Sb  Sb5  1  0.73284041  0.33672933  0.30672089  1.0
  Sb  Sb6  1  0.76713887  0.33673966  0.80672053  1.0
  Sb  Sb7  1  0.26715846  0.66327072  0.69327906  1.0
  O  O8  1  0.51486177  0.82046916  0.12011203  1.0
  O  O9  1  0.52640435  0.11310944  0.32379002  1.0
  O  O10  1  0.09342734  0.43205436  0.69231645  1.0
  O  O11  1  0.98525399  0.82052271  0.62010213  1.0
  O  O12  1  0.97351517  0.11312273  0.82380210  1.0
  O  O13  1  0.90657157  0.56794585  0.30768515  1.0
  O  O14  1  0.48514020  0.17952720  0.87988876  1.0
  O  O15  1  0.38258121  0.67142094  0.43924386  1.0
  O  O16  1  0.11746654  0.67141092  0.93924315  1.0
  O  O17  1  0.59345909  0.56795752  0.80766511  1.0
  O  O18  1  0.02648645  0.88687784  0.17619995  1.0
  O  O19  1  0.88253269  0.32859192  0.06075646  1.0
  O  O20  1  0.40653978  0.43204226  0.19233339  1.0
  O  O21  1  0.01474806  0.17948096  0.37989707  1.0
  O  O22  1  0.47359739  0.88688999  0.67620783  1.0
  O  O23  1  0.61741800  0.32857623  0.56075653  1.0
