# generated using pymatgen
data_YSBr
_symmetry_space_group_name_H-M   'P 1'
_cell_length_a   8.26311780
_cell_length_b   8.26311377
_cell_length_c   8.26313432
_cell_angle_alpha   59.99988850
_cell_angle_beta   59.99988542
_cell_angle_gamma   60.00006090
_symmetry_Int_Tables_number   1
_chemical_formula_structural   YSBr
_chemical_formula_sum   'Y4 S4 Br4'
_cell_volume   398.94860327
_cell_formula_units_Z   4
loop_
 _symmetry_equiv_pos_site_id
 _symmetry_equiv_pos_as_xyz
  1  'x, y, z'
loop_
 _atom_site_type_symbol
 _atom_site_label
 _atom_site_symmetry_multiplicity
 _atom_site_fract_x
 _atom_site_fract_y
 _atom_site_fract_z
 _atom_site_occupancy
  Y  Y0  1  0.59124841  0.13625129  0.13624922  1.0
  Y  Y1  1  0.13624993  0.59124934  0.13624990  1.0
  Y  Y2  1  0.13624941  0.13625029  0.13625163  1.0
  Y  Y3  1  0.13625052  0.13625055  0.59124838  1.0
  S  S4  1  0.36227957  0.36228003  0.36227745  1.0
  S  S5  1  0.91316128  0.36227892  0.36228039  1.0
  S  S6  1  0.36227890  0.36227993  0.91316178  1.0
  S  S7  1  0.36227872  0.91316225  0.36227953  1.0
  Br  Br8  1  0.35400756  0.88199780  0.88199787  1.0
  Br  Br9  1  0.88199765  0.88199595  0.88199796  1.0
  Br  Br10  1  0.88199933  0.35400739  0.88199692  1.0
  Br  Br11  1  0.88199671  0.88199625  0.35400798  1.0
