# generated using pymatgen
data_YSCl
_symmetry_space_group_name_H-M   'P 1'
_cell_length_a   8.08335572
_cell_length_b   8.08335494
_cell_length_c   8.08335591
_cell_angle_alpha   60.00001054
_cell_angle_beta   60.00000077
_cell_angle_gamma   60.00000792
_symmetry_Int_Tables_number   1
_chemical_formula_structural   YSCl
_chemical_formula_sum   'Y4 S4 Cl4'
_cell_volume   373.47377079
_cell_formula_units_Z   4
loop_
 _symmetry_equiv_pos_site_id
 _symmetry_equiv_pos_as_xyz
  1  'x, y, z'
loop_
 _atom_site_type_symbol
 _atom_site_label
 _atom_site_symmetry_multiplicity
 _atom_site_fract_x
 _atom_site_fract_y
 _atom_site_fract_z
 _atom_site_occupancy
  Y  Y0  1  0.36606636  0.36606654  0.36606610  1.0
  Y  Y1  1  0.36606649  0.36606645  0.90180077  1.0
  Y  Y2  1  0.36606646  0.90180074  0.36606660  1.0
  Y  Y3  1  0.90180066  0.36606631  0.36606649  1.0
  S  S4  1  0.13506822  0.13506815  0.13506816  1.0
  S  S5  1  0.13506823  0.13506835  0.59479535  1.0
  S  S6  1  0.13506817  0.59479534  0.13506821  1.0
  S  S7  1  0.59479548  0.13506824  0.13506824  1.0
  Cl  Cl8  1  0.61176418  0.61176418  0.61176430  1.0
  Cl  Cl9  1  0.61176407  0.61176417  0.16470754  1.0
  Cl  Cl10  1  0.61176416  0.16470736  0.61176407  1.0
  Cl  Cl11  1  0.16470751  0.61176417  0.61176417  1.0
