# generated using pymatgen
data_YSeCl
_symmetry_space_group_name_H-M   'P 1'
_cell_length_a   4.85640643
_cell_length_b   4.85640606
_cell_length_c   4.85640635
_cell_angle_alpha   59.99999646
_cell_angle_beta   59.99999970
_cell_angle_gamma   60.00000733
_symmetry_Int_Tables_number   1
_chemical_formula_structural   YSeCl
_chemical_formula_sum   'Y1 Se1 Cl1'
_cell_volume   80.98974839
_cell_formula_units_Z   1
loop_
 _symmetry_equiv_pos_site_id
 _symmetry_equiv_pos_as_xyz
  1  'x, y, z'
loop_
 _atom_site_type_symbol
 _atom_site_label
 _atom_site_symmetry_multiplicity
 _atom_site_fract_x
 _atom_site_fract_y
 _atom_site_fract_z
 _atom_site_occupancy
  Y  Y0  1  0.00000001  0.99999999  0.99999999  1.0
  Se  Se1  1  0.75000002  0.74999999  0.74999999  1.0
  Cl  Cl2  1  0.49999997  0.50000002  0.50000002  1.0
