# generated using pymatgen
data_YTlI4
_symmetry_space_group_name_H-M   'P 1'
_cell_length_a   7.59767058
_cell_length_b   8.83232717
_cell_length_c   7.59865820
_cell_angle_alpha   88.42539376
_cell_angle_beta   90.00215929
_cell_angle_gamma   89.98612849
_symmetry_Int_Tables_number   1
_chemical_formula_structural   YTlI4
_chemical_formula_sum   'Y2 Tl2 I8'
_cell_volume   509.71625063
_cell_formula_units_Z   2
loop_
 _symmetry_equiv_pos_site_id
 _symmetry_equiv_pos_as_xyz
  1  'x, y, z'
loop_
 _atom_site_type_symbol
 _atom_site_label
 _atom_site_symmetry_multiplicity
 _atom_site_fract_x
 _atom_site_fract_y
 _atom_site_fract_z
 _atom_site_occupancy
  Y  Y0  1  0.74914252  0.49999958  0.24999246  1.0
  Y  Y1  1  0.25085749  0.50000043  0.75000753  1.0
  Tl  Tl2  1  0.76160902  0.99999976  0.75001044  1.0
  Tl  Tl3  1  0.23839097  0.00000025  0.24998957  1.0
  I  I4  1  0.44783905  0.30237933  0.05673120  1.0
  I  I5  1  0.44783862  0.69762385  0.44327876  1.0
  I  I6  1  0.94734364  0.30274268  0.95171809  1.0
  I  I7  1  0.94733610  0.69725532  0.54827892  1.0
  I  I8  1  0.05265637  0.69725732  0.04828191  1.0
  I  I9  1  0.05266389  0.30274469  0.45172108  1.0
  I  I10  1  0.55216137  0.30237614  0.55672124  1.0
  I  I11  1  0.55216096  0.69762065  0.94326880  1.0
