# generated using pymatgen
data_ZnCdI4
_symmetry_space_group_name_H-M   'P 1'
_cell_length_a   13.34851964
_cell_length_b   6.21408875
_cell_length_c   6.20776368
_cell_angle_alpha   89.81244133
_cell_angle_beta   90.00033576
_cell_angle_gamma   89.99926113
_symmetry_Int_Tables_number   1
_chemical_formula_structural   ZnCdI4
_chemical_formula_sum   'Zn2 Cd2 I8'
_cell_volume   514.92432109
_cell_formula_units_Z   2
loop_
 _symmetry_equiv_pos_site_id
 _symmetry_equiv_pos_as_xyz
  1  'x, y, z'
loop_
 _atom_site_type_symbol
 _atom_site_label
 _atom_site_symmetry_multiplicity
 _atom_site_fract_x
 _atom_site_fract_y
 _atom_site_fract_z
 _atom_site_occupancy
  Zn  Zn0  1  0.75272911  0.49999866  0.74999716  1.0
  Zn  Zn1  1  0.24726583  0.50000137  0.25000288  1.0
  Cd  Cd2  1  0.75473465  0.99999958  0.24999051  1.0
  Cd  Cd3  1  0.24526207  0.00000041  0.75000946  1.0
  I  I4  1  0.62916121  0.73886024  0.51367221  1.0
  I  I5  1  0.62916293  0.26113852  0.98631763  1.0
  I  I6  1  0.37084083  0.26113898  0.48632859  1.0
  I  I7  1  0.37083911  0.73886227  0.01368159  1.0
  I  I8  1  0.87728669  0.26250720  0.51639017  1.0
  I  I9  1  0.87728535  0.73749608  0.98360555  1.0
  I  I10  1  0.12271545  0.73749225  0.48360949  1.0
  I  I11  1  0.12271676  0.26250444  0.01639475  1.0
