# generated using pymatgen
data_ZnGeCl4
_symmetry_space_group_name_H-M   'P 1'
_cell_length_a   9.65659072
_cell_length_b   6.81580749
_cell_length_c   6.39799011
_cell_angle_alpha   92.54424981
_cell_angle_beta   90.00021358
_cell_angle_gamma   90.00029738
_symmetry_Int_Tables_number   1
_chemical_formula_structural   ZnGeCl4
_chemical_formula_sum   'Zn2 Ge2 Cl8'
_cell_volume   420.68437498
_cell_formula_units_Z   2
loop_
 _symmetry_equiv_pos_site_id
 _symmetry_equiv_pos_as_xyz
  1  'x, y, z'
loop_
 _atom_site_type_symbol
 _atom_site_label
 _atom_site_symmetry_multiplicity
 _atom_site_fract_x
 _atom_site_fract_y
 _atom_site_fract_z
 _atom_site_occupancy
  Zn  Zn0  1  0.99773769  0.99999973  0.74999915  1.0
  Zn  Zn1  1  0.00226172  0.00000045  0.25000078  1.0
  Ge  Ge2  1  0.40780902  0.50000088  0.75000402  1.0
  Ge  Ge3  1  0.59219481  0.49999889  0.24999612  1.0
  Cl  Cl4  1  0.11916166  0.18022307  0.51058143  1.0
  Cl  Cl5  1  0.88083838  0.18022438  0.01058245  1.0
  Cl  Cl6  1  0.57131275  0.28424309  0.59192249  1.0
  Cl  Cl7  1  0.42868686  0.28424316  0.09192229  1.0
  Cl  Cl8  1  0.57131140  0.71575581  0.90807679  1.0
  Cl  Cl9  1  0.42868556  0.71575763  0.40807851  1.0
  Cl  Cl10  1  0.11916175  0.81977571  0.98941748  1.0
  Cl  Cl11  1  0.88083842  0.81977720  0.48941850  1.0
