# generated using pymatgen
data_ZnHgCl4
_symmetry_space_group_name_H-M   'P 1'
_cell_length_a   11.28593681
_cell_length_b   5.63582268
_cell_length_c   5.61211485
_cell_angle_alpha   90.29479144
_cell_angle_beta   89.99942927
_cell_angle_gamma   90.00029512
_symmetry_Int_Tables_number   1
_chemical_formula_structural   ZnHgCl4
_chemical_formula_sum   'Zn2 Hg2 Cl8'
_cell_volume   356.95686321
_cell_formula_units_Z   2
loop_
 _symmetry_equiv_pos_site_id
 _symmetry_equiv_pos_as_xyz
  1  'x, y, z'
loop_
 _atom_site_type_symbol
 _atom_site_label
 _atom_site_symmetry_multiplicity
 _atom_site_fract_x
 _atom_site_fract_y
 _atom_site_fract_z
 _atom_site_occupancy
  Zn  Zn0  1  0.74094654  0.49999758  0.74999979  1.0
  Zn  Zn1  1  0.25905350  0.50000201  0.25000086  1.0
  Hg  Hg2  1  0.74255892  0.99999976  0.24999927  1.0
  Hg  Hg3  1  0.25744106  0.00000053  0.75000044  1.0
  Cl  Cl4  1  0.61895564  0.73124051  0.51880071  1.0
  Cl  Cl5  1  0.61895643  0.26876246  0.98119562  1.0
  Cl  Cl6  1  0.38104420  0.26875947  0.48119919  1.0
  Cl  Cl7  1  0.38104374  0.73123766  0.01880414  1.0
  Cl  Cl8  1  0.86577404  0.27180798  0.51894761  1.0
  Cl  Cl9  1  0.86577373  0.72819274  0.98105266  1.0
  Cl  Cl10  1  0.13422590  0.72819197  0.48105234  1.0
  Cl  Cl11  1  0.13422630  0.27180734  0.01894737  1.0
