# generated using pymatgen
data_ZnNiH4
_symmetry_space_group_name_H-M   'P 1'
_cell_length_a   5.29552096
_cell_length_b   4.47690771
_cell_length_c   4.59631884
_cell_angle_alpha   63.84024332
_cell_angle_beta   90.00514668
_cell_angle_gamma   90.00294384
_symmetry_Int_Tables_number   1
_chemical_formula_structural   ZnNiH4
_chemical_formula_sum   'Zn2 Ni2 H8'
_cell_volume   97.80576664
_cell_formula_units_Z   2
loop_
 _symmetry_equiv_pos_site_id
 _symmetry_equiv_pos_as_xyz
  1  'x, y, z'
loop_
 _atom_site_type_symbol
 _atom_site_label
 _atom_site_symmetry_multiplicity
 _atom_site_fract_x
 _atom_site_fract_y
 _atom_site_fract_z
 _atom_site_occupancy
  Zn  Zn0  1  0.79739172  0.50004852  0.74993945  1.0
  Zn  Zn1  1  0.20260843  0.49995212  0.25005959  1.0
  Ni  Ni2  1  0.88816309  0.00000338  0.25003727  1.0
  Ni  Ni3  1  0.11183537  0.99999600  0.74996639  1.0
  H  H4  1  0.65627545  0.74391016  0.38983457  1.0
  H  H5  1  0.65625462  0.25607019  0.11020089  1.0
  H  H6  1  0.34372326  0.25608140  0.61016927  1.0
  H  H7  1  0.34374512  0.74393718  0.88979489  1.0
  H  H8  1  0.88403372  0.17881043  0.49057702  1.0
  H  H9  1  0.88400815  0.82115111  0.00941501  1.0
  H  H10  1  0.11596817  0.82119442  0.50942543  1.0
  H  H11  1  0.11599290  0.17884509  0.99058021  1.0
