# generated using pymatgen
data_ZnPbBr4
_symmetry_space_group_name_H-M   'P 1'
_cell_length_a   10.44304938
_cell_length_b   6.38982784
_cell_length_c   6.67153657
_cell_angle_alpha   80.80931106
_cell_angle_beta   90.00008146
_cell_angle_gamma   90.00022714
_symmetry_Int_Tables_number   1
_chemical_formula_structural   ZnPbBr4
_chemical_formula_sum   'Zn2 Pb2 Br8'
_cell_volume   439.47167795
_cell_formula_units_Z   2
loop_
 _symmetry_equiv_pos_site_id
 _symmetry_equiv_pos_as_xyz
  1  'x, y, z'
loop_
 _atom_site_type_symbol
 _atom_site_label
 _atom_site_symmetry_multiplicity
 _atom_site_fract_x
 _atom_site_fract_y
 _atom_site_fract_z
 _atom_site_occupancy
  Zn  Zn0  1  0.76403597  0.50000032  0.74999834  1.0
  Zn  Zn1  1  0.23596384  0.49999962  0.25000157  1.0
  Pb  Pb2  1  0.83426697  0.00000163  0.24999982  1.0
  Pb  Pb3  1  0.16573336  0.99999807  0.75000072  1.0
  Br  Br4  1  0.64288876  0.72418239  0.48775288  1.0
  Br  Br5  1  0.64288874  0.27581831  0.01224620  1.0
  Br  Br6  1  0.35711110  0.27581757  0.51224710  1.0
  Br  Br7  1  0.35711088  0.72418209  0.98775349  1.0
  Br  Br8  1  0.90007798  0.26623903  0.57671890  1.0
  Br  Br9  1  0.90007740  0.73376081  0.92328120  1.0
  Br  Br10  1  0.09992222  0.73376088  0.42328117  1.0
  Br  Br11  1  0.09992279  0.26623928  0.07671860  1.0
