# generated using pymatgen
data_ZnPtF4
_symmetry_space_group_name_H-M   'P 1'
_cell_length_a   6.06671545
_cell_length_b   4.93021051
_cell_length_c   5.43647199
_cell_angle_alpha   90.03687459
_cell_angle_beta   90.00000767
_cell_angle_gamma   89.99999562
_symmetry_Int_Tables_number   1
_chemical_formula_structural   ZnPtF4
_chemical_formula_sum   'Zn2 Pt2 F8'
_cell_volume   162.60584534
_cell_formula_units_Z   2
loop_
 _symmetry_equiv_pos_site_id
 _symmetry_equiv_pos_as_xyz
  1  'x, y, z'
loop_
 _atom_site_type_symbol
 _atom_site_label
 _atom_site_symmetry_multiplicity
 _atom_site_fract_x
 _atom_site_fract_y
 _atom_site_fract_z
 _atom_site_occupancy
  Zn  Zn0  1  0.85426570  0.99999997  0.24999996  1.0
  Zn  Zn1  1  0.14573431  0.00000003  0.75000004  1.0
  Pt  Pt2  1  0.65438357  0.49999995  0.74999997  1.0
  Pt  Pt3  1  0.34561644  0.50000005  0.25000004  1.0
  F  F4  1  0.62294873  0.75383730  0.40651159  1.0
  F  F5  1  0.62294868  0.24616277  0.09348833  1.0
  F  F6  1  0.37705128  0.24616270  0.59348841  1.0
  F  F7  1  0.37705130  0.75383722  0.90651166  1.0
  F  F8  1  0.89726539  0.22049496  0.57099109  1.0
  F  F9  1  0.89726536  0.77950492  0.92900886  1.0
  F  F10  1  0.10273462  0.77950504  0.42900890  1.0
  F  F11  1  0.10273463  0.22049509  0.07099114  1.0
