# generated using pymatgen
data_ZnSnF4
_symmetry_space_group_name_H-M   'P 1'
_cell_length_a   6.03549528
_cell_length_b   5.27888859
_cell_length_c   5.51454417
_cell_angle_alpha   93.99485967
_cell_angle_beta   89.99993734
_cell_angle_gamma   90.00000569
_symmetry_Int_Tables_number   1
_chemical_formula_structural   ZnSnF4
_chemical_formula_sum   'Zn2 Sn2 F8'
_cell_volume   175.27038608
_cell_formula_units_Z   2
loop_
 _symmetry_equiv_pos_site_id
 _symmetry_equiv_pos_as_xyz
  1  'x, y, z'
loop_
 _atom_site_type_symbol
 _atom_site_label
 _atom_site_symmetry_multiplicity
 _atom_site_fract_x
 _atom_site_fract_y
 _atom_site_fract_z
 _atom_site_occupancy
  Zn  Zn0  1  0.66449956  0.50000015  0.74999986  1.0
  Zn  Zn1  1  0.33550044  0.49999983  0.25000016  1.0
  Sn  Sn2  1  0.79360307  0.00000001  0.24999979  1.0
  Sn  Sn3  1  0.20639690  0.00000000  0.75000020  1.0
  F  F4  1  0.57359763  0.71874148  0.47627704  1.0
  F  F5  1  0.57359806  0.28125916  0.02372359  1.0
  F  F6  1  0.42640238  0.28125852  0.52372296  1.0
  F  F7  1  0.42640196  0.71874086  0.97627641  1.0
  F  F8  1  0.89508742  0.24894100  0.61385251  1.0
  F  F9  1  0.89508772  0.75105930  0.88614738  1.0
  F  F10  1  0.10491256  0.75105901  0.38614747  1.0
  F  F11  1  0.10491232  0.24894068  0.11385262  1.0
