# generated using pymatgen
data_ZnSnCl4
_symmetry_space_group_name_H-M   'P 1'
_cell_length_a   23.84336172
_cell_length_b   6.08250668
_cell_length_c   5.96842211
_cell_angle_alpha   77.89469215
_cell_angle_beta   90.00015544
_cell_angle_gamma   90.00003803
_symmetry_Int_Tables_number   1
_chemical_formula_structural   ZnSnCl4
_chemical_formula_sum   'Zn4 Sn4 Cl16'
_cell_volume   846.33747756
_cell_formula_units_Z   4
loop_
 _symmetry_equiv_pos_site_id
 _symmetry_equiv_pos_as_xyz
  1  'x, y, z'
loop_
 _atom_site_type_symbol
 _atom_site_label
 _atom_site_symmetry_multiplicity
 _atom_site_fract_x
 _atom_site_fract_y
 _atom_site_fract_z
 _atom_site_occupancy
  Zn  Zn0  1  0.35640709  0.57430385  0.08226861  1.0
  Zn  Zn1  1  0.85640775  0.42569570  0.41773302  1.0
  Zn  Zn2  1  0.64359265  0.42569614  0.91773120  1.0
  Zn  Zn3  1  0.14359251  0.57430426  0.58226717  1.0
  Sn  Sn4  1  0.32645960  0.07326004  0.58426943  1.0
  Sn  Sn5  1  0.82646014  0.92673999  0.91573127  1.0
  Sn  Sn6  1  0.67354021  0.92674004  0.41573042  1.0
  Sn  Sn7  1  0.17354004  0.07325986  0.08426891  1.0
  Cl  Cl8  1  0.30191531  0.35839974  0.89800273  1.0
  Cl  Cl9  1  0.80191500  0.64160120  0.60199868  1.0
  Cl  Cl10  1  0.69808477  0.64160041  0.10199754  1.0
  Cl  Cl11  1  0.19808490  0.35839910  0.39800184  1.0
  Cl  Cl12  1  0.40677275  0.32733738  0.35725228  1.0
  Cl  Cl13  1  0.90677237  0.67266325  0.14274852  1.0
  Cl  Cl14  1  0.59322737  0.67266262  0.64274742  1.0
  Cl  Cl15  1  0.09322753  0.32733678  0.85725160  1.0
  Cl  Cl16  1  0.40757022  0.81836423  0.80779473  1.0
  Cl  Cl17  1  0.90756992  0.18163615  0.69220621  1.0
  Cl  Cl18  1  0.59242988  0.18163574  0.19220523  1.0
  Cl  Cl19  1  0.09242998  0.81836396  0.30779386  1.0
  Cl  Cl20  1  0.30295123  0.79740013  0.26272013  1.0
  Cl  Cl21  1  0.80295112  0.20259927  0.23727981  1.0
  Cl  Cl22  1  0.69704885  0.20259961  0.73727948  1.0
  Cl  Cl23  1  0.19704881  0.79740053  0.76271992  1.0
