# generated using pymatgen
data_ZrB3HO6
_symmetry_space_group_name_H-M   'P 1'
_cell_length_a   4.70845022
_cell_length_b   4.70878249
_cell_length_c   4.70866424
_cell_angle_alpha   90.00012103
_cell_angle_beta   89.99166706
_cell_angle_gamma   89.98559105
_symmetry_Int_Tables_number   1
_chemical_formula_structural   ZrB3HO6
_chemical_formula_sum   'Zr1 B3 H1 O6'
_cell_volume   104.39611042
_cell_formula_units_Z   1
loop_
 _symmetry_equiv_pos_site_id
 _symmetry_equiv_pos_as_xyz
  1  'x, y, z'
loop_
 _atom_site_type_symbol
 _atom_site_label
 _atom_site_symmetry_multiplicity
 _atom_site_fract_x
 _atom_site_fract_y
 _atom_site_fract_z
 _atom_site_occupancy
  Zr  Zr0  1  0.99999466  0.00000112  0.00000674  1.0
  B  B1  1  0.50000201  0.50000010  0.00000059  1.0
  B  B2  1  0.50000023  0.00000025  0.49998890  1.0
  B  B3  1  0.00000027  0.49999885  0.50000007  1.0
  H  H4  1  0.50000014  0.49999986  0.49999984  1.0
  O  O5  1  0.49996333  0.00001289  0.76961565  1.0
  O  O6  1  0.99999653  0.76960628  0.50000528  1.0
  O  O7  1  0.00000465  0.23039428  0.49999271  1.0
  O  O8  1  0.50003918  0.99998641  0.23039064  1.0
  O  O9  1  0.23037868  0.50004781  0.00002218  1.0
  O  O10  1  0.76962032  0.49995215  0.99997740  1.0
