# generated using pymatgen
data_AgAuCl4
_symmetry_space_group_name_H-M   'P 1'
_cell_length_a   4.45784265
_cell_length_b   9.65180561
_cell_length_c   8.65485651
_cell_angle_alpha   91.78787265
_cell_angle_beta   90.00007767
_cell_angle_gamma   90.00001896
_symmetry_Int_Tables_number   1
_chemical_formula_structural   AgAuCl4
_chemical_formula_sum   'Ag2 Au2 Cl8'
_cell_volume   372.20457037
_cell_formula_units_Z   2
loop_
 _symmetry_equiv_pos_site_id
 _symmetry_equiv_pos_as_xyz
  1  'x, y, z'
loop_
 _atom_site_type_symbol
 _atom_site_label
 _atom_site_symmetry_multiplicity
 _atom_site_fract_x
 _atom_site_fract_y
 _atom_site_fract_z
 _atom_site_occupancy
  Ag  Ag0  1  0.50400826  0.24999997  0.75000047  1.0
  Ag  Ag1  1  0.49599175  0.75000005  0.24999955  1.0
  Au  Au2  1  0.00000006  0.49999997  0.49999999  1.0
  Au  Au3  1  0.00000001  0.99999998  0.00000002  1.0
  Cl  Cl4  1  0.68659041  0.69183970  0.52413587  1.0
  Cl  Cl5  1  0.68658952  0.80816055  0.97586361  1.0
  Cl  Cl6  1  0.07384157  0.95527727  0.25888355  1.0
  Cl  Cl7  1  0.07384096  0.54472231  0.24111647  1.0
  Cl  Cl8  1  0.92615840  0.04472276  0.74111644  1.0
  Cl  Cl9  1  0.92615900  0.45527767  0.75888354  1.0
  Cl  Cl10  1  0.31341054  0.19183945  0.02413640  1.0
  Cl  Cl11  1  0.31340951  0.30816033  0.47586409  1.0
