# generated using pymatgen
data_AgSbI4
_symmetry_space_group_name_H-M   'P 1'
_cell_length_a   4.34312878
_cell_length_b   10.41647437
_cell_length_c   10.95328886
_cell_angle_alpha   93.47356000
_cell_angle_beta   89.99999992
_cell_angle_gamma   89.99999643
_symmetry_Int_Tables_number   1
_chemical_formula_structural   AgSbI4
_chemical_formula_sum   'Ag2 Sb2 I8'
_cell_volume   494.61741774
_cell_formula_units_Z   2
loop_
 _symmetry_equiv_pos_site_id
 _symmetry_equiv_pos_as_xyz
  1  'x, y, z'
loop_
 _atom_site_type_symbol
 _atom_site_label
 _atom_site_symmetry_multiplicity
 _atom_site_fract_x
 _atom_site_fract_y
 _atom_site_fract_z
 _atom_site_occupancy
  Ag  Ag0  1  0.50920506  0.25000002  0.75000004  1.0
  Ag  Ag1  1  0.49079496  0.74999999  0.24999997  1.0
  Sb  Sb2  1  0.00000001  0.50000000  0.50000000  1.0
  Sb  Sb3  1  0.99999998  0.00000000  0.99999999  1.0
  I  I4  1  0.50089706  0.70651351  0.54633996  1.0
  I  I5  1  0.50089712  0.79348648  0.95366003  1.0
  I  I6  1  0.99147935  0.94947769  0.27145508  1.0
  I  I7  1  0.99147935  0.55052230  0.22854492  1.0
  I  I8  1  0.00852060  0.05052230  0.72854492  1.0
  I  I9  1  0.00852069  0.44947770  0.77145509  1.0
  I  I10  1  0.49910287  0.20651351  0.04633996  1.0
  I  I11  1  0.49910293  0.29348649  0.45366005  1.0
