# generated using pymatgen
data_AlAgSe2
_symmetry_space_group_name_H-M   'P 1'
_cell_length_a   3.80077929
_cell_length_b   3.80077931
_cell_length_c   20.30370009
_cell_angle_alpha   90.00000074
_cell_angle_beta   89.99999998
_cell_angle_gamma   120.00002109
_symmetry_Int_Tables_number   1
_chemical_formula_structural   AlAgSe2
_chemical_formula_sum   'Al3 Ag3 Se6'
_cell_volume   254.01012805
_cell_formula_units_Z   3
loop_
 _symmetry_equiv_pos_site_id
 _symmetry_equiv_pos_as_xyz
  1  'x, y, z'
loop_
 _atom_site_type_symbol
 _atom_site_label
 _atom_site_symmetry_multiplicity
 _atom_site_fract_x
 _atom_site_fract_y
 _atom_site_fract_z
 _atom_site_occupancy
  Al  Al0  1  0.33333333  0.66666667  0.16398170  1.0
  Al  Al1  1  0.66666667  0.33333333  0.83601836  1.0
  Al  Al2  1  0.99999999  0.00000000  0.99999998  1.0
  Ag  Ag3  1  0.66666667  0.33333333  0.34037378  1.0
  Ag  Ag4  1  0.33333333  0.66666667  0.65962503  1.0
  Ag  Ag5  1  0.99999999  0.99999998  0.49999901  1.0
  Se  Se6  1  0.66666667  0.33333333  0.07434164  1.0
  Se  Se7  1  0.33333333  0.66666667  0.92565917  1.0
  Se  Se8  1  0.66666667  0.33333333  0.58540658  1.0
  Se  Se9  1  0.33333333  0.66666667  0.41459307  1.0
  Se  Se10  1  0.00000003  0.99999994  0.22561232  1.0
  Se  Se11  1  0.99999998  0.00000005  0.77438935  1.0
