# generated using pymatgen
data_AlHF4
_symmetry_space_group_name_H-M   'P 1'
_cell_length_a   4.94198040
_cell_length_b   6.60468225
_cell_length_c   10.89464410
_cell_angle_alpha   56.74397002
_cell_angle_beta   89.99999665
_cell_angle_gamma   89.99999938
_symmetry_Int_Tables_number   1
_chemical_formula_structural   AlHF4
_chemical_formula_sum   'Al4 H4 F16'
_cell_volume   297.36574069
_cell_formula_units_Z   4
loop_
 _symmetry_equiv_pos_site_id
 _symmetry_equiv_pos_as_xyz
  1  'x, y, z'
loop_
 _atom_site_type_symbol
 _atom_site_label
 _atom_site_symmetry_multiplicity
 _atom_site_fract_x
 _atom_site_fract_y
 _atom_site_fract_z
 _atom_site_occupancy
  Al  Al0  1  0.74971229  0.88831157  0.50079391  1.0
  Al  Al1  1  0.25028776  0.11168841  0.49920614  1.0
  Al  Al2  1  0.74971219  0.11168837  0.99920611  1.0
  Al  Al3  1  0.25028780  0.88831165  0.00079384  1.0
  H  H4  1  0.11761522  0.99999992  0.75000003  1.0
  H  H5  1  0.88238485  0.00000007  0.24999997  1.0
  H  H6  1  0.62365776  0.50000004  0.74999997  1.0
  H  H7  1  0.37634236  0.49999997  0.25000004  1.0
  F  F8  1  0.12542897  0.82977892  0.86772670  1.0
  F  F9  1  0.87457099  0.17022117  0.13227329  1.0
  F  F10  1  0.12542901  0.17022112  0.63227330  1.0
  F  F11  1  0.87457103  0.82977882  0.36772671  1.0
  F  F12  1  0.56652224  0.98957414  0.60609392  1.0
  F  F13  1  0.43347770  0.01042590  0.39390608  1.0
  F  F14  1  0.56652218  0.01042581  0.89390607  1.0
  F  F15  1  0.43347765  0.98957415  0.10609393  1.0
  F  F16  1  0.62807334  0.58326353  0.62532529  1.0
  F  F17  1  0.37192665  0.41673647  0.37467467  1.0
  F  F18  1  0.62807332  0.41673648  0.87467465  1.0
  F  F19  1  0.37192658  0.58326353  0.12532538  1.0
  F  F20  1  0.93202223  0.81433704  0.10316480  1.0
  F  F21  1  0.06797776  0.18566302  0.89683518  1.0
  F  F22  1  0.93202238  0.18566298  0.39683511  1.0
  F  F23  1  0.06797774  0.81433695  0.60316491  1.0
