# generated using pymatgen
data_AsBrCl4
_symmetry_space_group_name_H-M   'P 1'
_cell_length_a   8.56427210
_cell_length_b   8.24603440
_cell_length_c   10.22028687
_cell_angle_alpha   94.60617681
_cell_angle_beta   88.03326347
_cell_angle_gamma   84.78653411
_symmetry_Int_Tables_number   1
_chemical_formula_structural   AsBrCl4
_chemical_formula_sum   'As2 Br2 Cl8'
_cell_volume   715.83241085
_cell_formula_units_Z   2
loop_
 _symmetry_equiv_pos_site_id
 _symmetry_equiv_pos_as_xyz
  1  'x, y, z'
loop_
 _atom_site_type_symbol
 _atom_site_label
 _atom_site_symmetry_multiplicity
 _atom_site_fract_x
 _atom_site_fract_y
 _atom_site_fract_z
 _atom_site_occupancy
  As  As0  1  0.01844589  0.73893473  0.68899013  1.0
  As  As1  1  0.98193500  0.25932717  0.31109503  1.0
  Br  Br2  1  0.45218920  0.79435952  0.34599876  1.0
  Br  Br3  1  0.54717683  0.20940984  0.65457611  1.0
  Cl  Cl4  1  0.92946242  0.95465407  0.81907189  1.0
  Cl  Cl5  1  0.07056212  0.04453976  0.18010423  1.0
  Cl  Cl6  1  0.03195177  0.55054837  0.82953870  1.0
  Cl  Cl7  1  0.96791759  0.44812990  0.17099825  1.0
  Cl  Cl8  1  0.80453864  0.68440084  0.58906178  1.0
  Cl  Cl9  1  0.19602858  0.31484674  0.41025720  1.0
  Cl  Cl10  1  0.27227108  0.77566800  0.50056719  1.0
  Cl  Cl11  1  0.72752087  0.22518105  0.49974074  1.0
