# generated using pymatgen
data_AsPF2
_symmetry_space_group_name_H-M   'P 1'
_cell_length_a   4.44889604
_cell_length_b   4.44891206
_cell_length_c   7.96115878
_cell_angle_alpha   90.00035712
_cell_angle_beta   89.99959276
_cell_angle_gamma   120.00128232
_symmetry_Int_Tables_number   1
_chemical_formula_structural   AsPF2
_chemical_formula_sum   'As2 P2 F4'
_cell_volume   136.46063386
_cell_formula_units_Z   2
loop_
 _symmetry_equiv_pos_site_id
 _symmetry_equiv_pos_as_xyz
  1  'x, y, z'
loop_
 _atom_site_type_symbol
 _atom_site_label
 _atom_site_symmetry_multiplicity
 _atom_site_fract_x
 _atom_site_fract_y
 _atom_site_fract_z
 _atom_site_occupancy
  As  As0  1  0.00000388  0.99999718  0.84325891  1.0
  As  As1  1  0.99999584  0.00000269  0.15674115  1.0
  P  P2  1  0.33333333  0.66666667  0.80846729  1.0
  P  P3  1  0.66666667  0.33333333  0.19153284  1.0
  F  F4  1  0.33333333  0.66666667  0.60150569  1.0
  F  F5  1  0.33333333  0.66666667  0.08258350  1.0
  F  F6  1  0.66666667  0.33333333  0.91741625  1.0
  F  F7  1  0.66666667  0.33333333  0.39849438  1.0
