# generated using pymatgen
data_BaHgP
_symmetry_space_group_name_H-M   'P 1'
_cell_length_a   5.19227027
_cell_length_b   5.19227049
_cell_length_c   5.19226900
_cell_angle_alpha   59.99999578
_cell_angle_beta   59.99998268
_cell_angle_gamma   59.99998143
_symmetry_Int_Tables_number   1
_chemical_formula_structural   BaHgP
_chemical_formula_sum   'Ba1 Hg1 P1'
_cell_volume   98.98209783
_cell_formula_units_Z   1
loop_
 _symmetry_equiv_pos_site_id
 _symmetry_equiv_pos_as_xyz
  1  'x, y, z'
loop_
 _atom_site_type_symbol
 _atom_site_label
 _atom_site_symmetry_multiplicity
 _atom_site_fract_x
 _atom_site_fract_y
 _atom_site_fract_z
 _atom_site_occupancy
  Ba  Ba0  1  0.49999999  0.49999992  0.49999996  1.0
  Hg  Hg1  1  0.75000000  0.75000000  0.75000002  1.0
  P  P2  1  0.00000001  0.00000008  0.00000002  1.0
