# generated using pymatgen
data_BaPbCl4
_symmetry_space_group_name_H-M   'P 1'
_cell_length_a   7.42454893
_cell_length_b   7.25964090
_cell_length_c   7.47687211
_cell_angle_alpha   82.33084019
_cell_angle_beta   89.99998003
_cell_angle_gamma   89.99999594
_symmetry_Int_Tables_number   1
_chemical_formula_structural   BaPbCl4
_chemical_formula_sum   'Ba2 Pb2 Cl8'
_cell_volume   399.39534492
_cell_formula_units_Z   2
loop_
 _symmetry_equiv_pos_site_id
 _symmetry_equiv_pos_as_xyz
  1  'x, y, z'
loop_
 _atom_site_type_symbol
 _atom_site_label
 _atom_site_symmetry_multiplicity
 _atom_site_fract_x
 _atom_site_fract_y
 _atom_site_fract_z
 _atom_site_occupancy
  Ba  Ba0  1  0.26222358  0.49999983  0.75000003  1.0
  Ba  Ba1  1  0.73777635  0.50000008  0.25000000  1.0
  Pb  Pb2  1  0.80191095  0.00000010  0.74999995  1.0
  Pb  Pb3  1  0.19808913  0.00000004  0.25000001  1.0
  Cl  Cl4  1  0.54739397  0.74781011  0.92444441  1.0
  Cl  Cl5  1  0.95560133  0.74842612  0.51099166  1.0
  Cl  Cl6  1  0.45260600  0.74781014  0.42444447  1.0
  Cl  Cl7  1  0.04439858  0.74842614  0.01099167  1.0
  Cl  Cl8  1  0.95560138  0.25157389  0.98900841  1.0
  Cl  Cl9  1  0.54739399  0.25218976  0.57555556  1.0
  Cl  Cl10  1  0.04439869  0.25157390  0.48900832  1.0
  Cl  Cl11  1  0.45260605  0.25218986  0.07555550  1.0
