# generated using pymatgen
data_BaSrCl4
_symmetry_space_group_name_H-M   'P 1'
_cell_length_a   7.06032111
_cell_length_b   7.95535448
_cell_length_c   16.75445740
_cell_angle_alpha   70.90371732
_cell_angle_beta   89.99999993
_cell_angle_gamma   89.99999997
_symmetry_Int_Tables_number   1
_chemical_formula_structural   BaSrCl4
_chemical_formula_sum   'Ba4 Sr4 Cl16'
_cell_volume   889.26754544
_cell_formula_units_Z   4
loop_
 _symmetry_equiv_pos_site_id
 _symmetry_equiv_pos_as_xyz
  1  'x, y, z'
loop_
 _atom_site_type_symbol
 _atom_site_label
 _atom_site_symmetry_multiplicity
 _atom_site_fract_x
 _atom_site_fract_y
 _atom_site_fract_z
 _atom_site_occupancy
  Ba  Ba0  1  0.05485357  0.71448688  0.84234535  1.0
  Ba  Ba1  1  0.44514643  0.71448689  0.34234535  1.0
  Ba  Ba2  1  0.55485357  0.28551311  0.65765465  1.0
  Ba  Ba3  1  0.94514643  0.28551312  0.15765465  1.0
  Sr  Sr4  1  0.31043711  0.81464829  0.59308097  1.0
  Sr  Sr5  1  0.18956290  0.81464830  0.09308097  1.0
  Sr  Sr6  1  0.81043711  0.18535170  0.90691903  1.0
  Sr  Sr7  1  0.68956288  0.18535171  0.40691903  1.0
  Cl  Cl8  1  0.18816222  0.03666548  0.68344649  1.0
  Cl  Cl9  1  0.31183777  0.03666548  0.18344649  1.0
  Cl  Cl10  1  0.68030211  0.97160117  0.58362703  1.0
  Cl  Cl11  1  0.81969789  0.97160117  0.08362704  1.0
  Cl  Cl12  1  0.35372201  0.53858016  0.75084112  1.0
  Cl  Cl13  1  0.26858936  0.53596218  0.52394381  1.0
  Cl  Cl14  1  0.14627800  0.53858017  0.25084112  1.0
  Cl  Cl15  1  0.76858936  0.46403781  0.97605619  1.0
  Cl  Cl16  1  0.23141064  0.53596218  0.02394381  1.0
  Cl  Cl17  1  0.85372201  0.46141983  0.74915888  1.0
  Cl  Cl18  1  0.73141063  0.46403782  0.47605619  1.0
  Cl  Cl19  1  0.64627800  0.46141985  0.24915888  1.0
  Cl  Cl20  1  0.18030211  0.02839883  0.91637296  1.0
  Cl  Cl21  1  0.31969788  0.02839883  0.41637297  1.0
  Cl  Cl22  1  0.68816222  0.96333452  0.81655351  1.0
  Cl  Cl23  1  0.81183777  0.96333452  0.31655351  1.0
