# generated using pymatgen
data_BaTiCl4
_symmetry_space_group_name_H-M   'P 1'
_cell_length_a   7.25866946
_cell_length_b   6.77501625
_cell_length_c   7.06800805
_cell_angle_alpha   81.08596235
_cell_angle_beta   90.00018484
_cell_angle_gamma   89.99989119
_symmetry_Int_Tables_number   1
_chemical_formula_structural   BaTiCl4
_chemical_formula_sum   'Ba2 Ti2 Cl8'
_cell_volume   343.38950974
_cell_formula_units_Z   2
loop_
 _symmetry_equiv_pos_site_id
 _symmetry_equiv_pos_as_xyz
  1  'x, y, z'
loop_
 _atom_site_type_symbol
 _atom_site_label
 _atom_site_symmetry_multiplicity
 _atom_site_fract_x
 _atom_site_fract_y
 _atom_site_fract_z
 _atom_site_occupancy
  Ba  Ba0  1  0.27062998  0.50000006  0.74999997  1.0
  Ba  Ba1  1  0.72937004  0.49999994  0.25000003  1.0
  Ti  Ti2  1  0.84090217  0.99999982  0.75000009  1.0
  Ti  Ti3  1  0.15909782  0.00000018  0.24999992  1.0
  Cl  Cl4  1  0.59215349  0.76316474  0.88478105  1.0
  Cl  Cl5  1  0.94227519  0.77243416  0.50798748  1.0
  Cl  Cl6  1  0.40784659  0.76316460  0.38478129  1.0
  Cl  Cl7  1  0.05772476  0.77243410  0.00798753  1.0
  Cl  Cl8  1  0.94227525  0.22756590  0.99201248  1.0
  Cl  Cl9  1  0.59215340  0.23683540  0.61521870  1.0
  Cl  Cl10  1  0.05772481  0.22756584  0.49201252  1.0
  Cl  Cl11  1  0.40784650  0.23683526  0.11521895  1.0
