# generated using pymatgen
data_BeCrO2
_symmetry_space_group_name_H-M   'P 1'
_cell_length_a   5.62385008
_cell_length_b   5.66274850
_cell_length_c   5.62525696
_cell_angle_alpha   106.69026056
_cell_angle_beta   132.42796564
_cell_angle_gamma   52.38555237
_symmetry_Int_Tables_number   1
_chemical_formula_structural   BeCrO2
_chemical_formula_sum   'Be2 Cr2 O4'
_cell_volume   102.33987370
_cell_formula_units_Z   2
loop_
 _symmetry_equiv_pos_site_id
 _symmetry_equiv_pos_as_xyz
  1  'x, y, z'
loop_
 _atom_site_type_symbol
 _atom_site_label
 _atom_site_symmetry_multiplicity
 _atom_site_fract_x
 _atom_site_fract_y
 _atom_site_fract_z
 _atom_site_occupancy
  Be  Be0  1  0.71278695  0.24999714  0.46279291  1.0
  Be  Be1  1  0.28721531  0.75000038  0.53720740  1.0
  Cr  Cr2  1  0.99999912  0.50000071  0.49999964  1.0
  Cr  Cr3  1  0.99999971  0.00000056  0.00000018  1.0
  O  O4  1  0.50148164  0.36982947  0.62670237  1.0
  O  O5  1  0.99642036  0.13021344  0.37128913  1.0
  O  O6  1  0.00357927  0.86978733  0.62871081  1.0
  O  O7  1  0.49851764  0.63017097  0.37329756  1.0
