# generated using pymatgen
data_BiSbBr2
_symmetry_space_group_name_H-M   'P 1'
_cell_length_a   3.42376889
_cell_length_b   5.62402689
_cell_length_c   6.96377669
_cell_angle_alpha   90.23038197
_cell_angle_beta   90.00000915
_cell_angle_gamma   89.99999871
_symmetry_Int_Tables_number   1
_chemical_formula_structural   BiSbBr2
_chemical_formula_sum   'Bi1 Sb1 Br2'
_cell_volume   134.08900097
_cell_formula_units_Z   1
loop_
 _symmetry_equiv_pos_site_id
 _symmetry_equiv_pos_as_xyz
  1  'x, y, z'
loop_
 _atom_site_type_symbol
 _atom_site_label
 _atom_site_symmetry_multiplicity
 _atom_site_fract_x
 _atom_site_fract_y
 _atom_site_fract_z
 _atom_site_occupancy
  Bi  Bi0  1  0.00000001  0.00000000  0.00000000  1.0
  Sb  Sb1  1  0.00000000  0.00000001  0.50000000  1.0
  Br  Br2  1  0.99999998  0.49999999  0.50000000  1.0
  Br  Br3  1  0.00000000  0.50000000  0.00000000  1.0
