# generated using pymatgen
data_CaAgSb
_symmetry_space_group_name_H-M   'P 1'
_cell_length_a   5.03175822
_cell_length_b   5.03175778
_cell_length_c   5.03175828
_cell_angle_alpha   59.99998186
_cell_angle_beta   59.99997481
_cell_angle_gamma   59.99996110
_symmetry_Int_Tables_number   1
_chemical_formula_structural   CaAgSb
_chemical_formula_sum   'Ca1 Ag1 Sb1'
_cell_volume   90.08323912
_cell_formula_units_Z   1
loop_
 _symmetry_equiv_pos_site_id
 _symmetry_equiv_pos_as_xyz
  1  'x, y, z'
loop_
 _atom_site_type_symbol
 _atom_site_label
 _atom_site_symmetry_multiplicity
 _atom_site_fract_x
 _atom_site_fract_y
 _atom_site_fract_z
 _atom_site_occupancy
  Ca  Ca0  1  0.75000001  0.75000001  0.74999999  1.0
  Ag  Ag1  1  0.50000001  0.49999998  0.50000003  1.0
  Sb  Sb2  1  0.99999998  0.00000002  0.99999998  1.0
