# generated using pymatgen
data_CaCeSb2
_symmetry_space_group_name_H-M   'P 1'
_cell_length_a   5.46497855
_cell_length_b   5.46497876
_cell_length_c   5.46496347
_cell_angle_alpha   60.00003380
_cell_angle_beta   60.00015798
_cell_angle_gamma   60.00011807
_symmetry_Int_Tables_number   1
_chemical_formula_structural   CaCeSb2
_chemical_formula_sum   'Ca1 Ce1 Sb2'
_cell_volume   115.41180213
_cell_formula_units_Z   1
loop_
 _symmetry_equiv_pos_site_id
 _symmetry_equiv_pos_as_xyz
  1  'x, y, z'
loop_
 _atom_site_type_symbol
 _atom_site_label
 _atom_site_symmetry_multiplicity
 _atom_site_fract_x
 _atom_site_fract_y
 _atom_site_fract_z
 _atom_site_occupancy
  Ca  Ca0  1  0.50000034  0.49999960  0.50000013  1.0
  Ce  Ce1  1  0.99999904  0.00000108  0.99999965  1.0
  Sb  Sb2  1  0.75000052  0.74999973  0.74999997  1.0
  Sb  Sb3  1  0.25000010  0.24999960  0.25000025  1.0
