# generated using pymatgen
data_CaCoI4
_symmetry_space_group_name_H-M   'P 1'
_cell_length_a   6.88892903
_cell_length_b   7.42942827
_cell_length_c   8.41073283
_cell_angle_alpha   89.99998832
_cell_angle_beta   89.99999951
_cell_angle_gamma   91.97841557
_symmetry_Int_Tables_number   1
_chemical_formula_structural   CaCoI4
_chemical_formula_sum   'Ca2 Co2 I8'
_cell_volume   430.21146864
_cell_formula_units_Z   2
loop_
 _symmetry_equiv_pos_site_id
 _symmetry_equiv_pos_as_xyz
  1  'x, y, z'
loop_
 _atom_site_type_symbol
 _atom_site_label
 _atom_site_symmetry_multiplicity
 _atom_site_fract_x
 _atom_site_fract_y
 _atom_site_fract_z
 _atom_site_occupancy
  Ca  Ca0  1  0.00000006  0.24999994  0.14745320  1.0
  Ca  Ca1  1  0.00000004  0.74999997  0.85254813  1.0
  Co  Co2  1  0.49999977  0.25000026  0.62162337  1.0
  Co  Co3  1  0.50000018  0.75000009  0.37837515  1.0
  I  I4  1  0.71839230  0.43787905  0.39396784  1.0
  I  I5  1  0.28160783  0.06212083  0.39396765  1.0
  I  I6  1  0.28160721  0.56212426  0.60603065  1.0
  I  I7  1  0.71839294  0.93787564  0.60603059  1.0
  I  I8  1  0.74011136  0.90230951  0.13092383  1.0
  I  I9  1  0.25988837  0.59769028  0.13092384  1.0
  I  I10  1  0.25988883  0.09768942  0.86907783  1.0
  I  I11  1  0.74011111  0.40231075  0.86907791  1.0
