# generated using pymatgen
data_CaEuO2
_symmetry_space_group_name_H-M   'P 1'
_cell_length_a   3.42824811
_cell_length_b   3.42824813
_cell_length_c   6.09735388
_cell_angle_alpha   90.00000356
_cell_angle_beta   89.99998859
_cell_angle_gamma   120.00002650
_symmetry_Int_Tables_number   1
_chemical_formula_structural   CaEuO2
_chemical_formula_sum   'Ca1 Eu1 O2'
_cell_volume   62.06066291
_cell_formula_units_Z   1
loop_
 _symmetry_equiv_pos_site_id
 _symmetry_equiv_pos_as_xyz
  1  'x, y, z'
loop_
 _atom_site_type_symbol
 _atom_site_label
 _atom_site_symmetry_multiplicity
 _atom_site_fract_x
 _atom_site_fract_y
 _atom_site_fract_z
 _atom_site_occupancy
  Ca  Ca0  1  0.99999995  0.00000000  0.50000000  1.0
  Eu  Eu1  1  0.00000006  0.00000001  0.00000000  1.0
  O  O2  1  0.33333333  0.66666667  0.73776773  1.0
  O  O3  1  0.66666667  0.33333333  0.26223227  1.0
