# generated using pymatgen
data_CaReCl4
_symmetry_space_group_name_H-M   'P 1'
_cell_length_a   8.93461603
_cell_length_b   6.17891935
_cell_length_c   6.70857330
_cell_angle_alpha   84.22360141
_cell_angle_beta   90.00055977
_cell_angle_gamma   89.99908459
_symmetry_Int_Tables_number   1
_chemical_formula_structural   CaReCl4
_chemical_formula_sum   'Ca2 Re2 Cl8'
_cell_volume   368.47475033
_cell_formula_units_Z   2
loop_
 _symmetry_equiv_pos_site_id
 _symmetry_equiv_pos_as_xyz
  1  'x, y, z'
loop_
 _atom_site_type_symbol
 _atom_site_label
 _atom_site_symmetry_multiplicity
 _atom_site_fract_x
 _atom_site_fract_y
 _atom_site_fract_z
 _atom_site_occupancy
  Ca  Ca0  1  0.87112248  0.00000256  0.74999961  1.0
  Ca  Ca1  1  0.12887732  0.00000445  0.24999446  1.0
  Re  Re2  1  0.29757807  0.49995982  0.75004658  1.0
  Re  Re3  1  0.70242226  0.49998196  0.25001674  1.0
  Cl  Cl4  1  0.65374092  0.74303903  0.96350400  1.0
  Cl  Cl5  1  0.89949797  0.75362001  0.43617440  1.0
  Cl  Cl6  1  0.34626061  0.74304821  0.46349544  1.0
  Cl  Cl7  1  0.10050204  0.75362020  0.93617291  1.0
  Cl  Cl8  1  0.89949767  0.24637945  0.06382467  1.0
  Cl  Cl9  1  0.65374475  0.25697700  0.53647760  1.0
  Cl  Cl10  1  0.10050232  0.24638023  0.56382336  1.0
  Cl  Cl11  1  0.34625359  0.25698708  0.03647024  1.0
