# generated using pymatgen
data_CaTmCl4
_symmetry_space_group_name_H-M   'P 1'
_cell_length_a   6.80491999
_cell_length_b   6.70194126
_cell_length_c   6.81082798
_cell_angle_alpha   78.24813421
_cell_angle_beta   90.00090049
_cell_angle_gamma   89.99944600
_symmetry_Int_Tables_number   1
_chemical_formula_structural   CaTmCl4
_chemical_formula_sum   'Ca2 Tm2 Cl8'
_cell_volume   304.10493878
_cell_formula_units_Z   2
loop_
 _symmetry_equiv_pos_site_id
 _symmetry_equiv_pos_as_xyz
  1  'x, y, z'
loop_
 _atom_site_type_symbol
 _atom_site_label
 _atom_site_symmetry_multiplicity
 _atom_site_fract_x
 _atom_site_fract_y
 _atom_site_fract_z
 _atom_site_occupancy
  Ca  Ca0  1  0.82953926  0.00000009  0.75000048  1.0
  Ca  Ca1  1  0.17046081  0.99999990  0.24999951  1.0
  Tm  Tm2  1  0.26472617  0.49999920  0.75000062  1.0
  Tm  Tm3  1  0.73527375  0.50000079  0.24999939  1.0
  Cl  Cl4  1  0.55678736  0.72137886  0.90724517  1.0
  Cl  Cl5  1  0.94324036  0.72109331  0.52119031  1.0
  Cl  Cl6  1  0.44321228  0.72137883  0.40724510  1.0
  Cl  Cl7  1  0.05675962  0.72109378  0.02118973  1.0
  Cl  Cl8  1  0.94324041  0.27890615  0.97881027  1.0
  Cl  Cl9  1  0.55678770  0.27862112  0.59275494  1.0
  Cl  Cl10  1  0.05675966  0.27890676  0.47880967  1.0
  Cl  Cl11  1  0.44321262  0.27862121  0.09275481  1.0
