# generated using pymatgen
data_CaZrSb2
_symmetry_space_group_name_H-M   'P 1'
_cell_length_a   5.25723002
_cell_length_b   5.25722973
_cell_length_c   5.25722638
_cell_angle_alpha   60.00000398
_cell_angle_beta   60.00003773
_cell_angle_gamma   59.99998012
_symmetry_Int_Tables_number   1
_chemical_formula_structural   CaZrSb2
_chemical_formula_sum   'Ca1 Zr1 Sb2'
_cell_volume   102.74381478
_cell_formula_units_Z   1
loop_
 _symmetry_equiv_pos_site_id
 _symmetry_equiv_pos_as_xyz
  1  'x, y, z'
loop_
 _atom_site_type_symbol
 _atom_site_label
 _atom_site_symmetry_multiplicity
 _atom_site_fract_x
 _atom_site_fract_y
 _atom_site_fract_z
 _atom_site_occupancy
  Ca  Ca0  1  0.00000002  0.99999988  0.99999993  1.0
  Zr  Zr1  1  0.49999997  0.50000016  0.50000001  1.0
  Sb  Sb2  1  0.24999994  0.24999988  0.25000009  1.0
  Sb  Sb3  1  0.75000007  0.75000008  0.74999998  1.0
