# generated using pymatgen
data_CaZrN2
_symmetry_space_group_name_H-M   'P 1'
_cell_length_a   3.28344805
_cell_length_b   3.28344797
_cell_length_c   5.92097612
_cell_angle_alpha   90.00000981
_cell_angle_beta   90.00000963
_cell_angle_gamma   120.00001369
_symmetry_Int_Tables_number   1
_chemical_formula_structural   CaZrN2
_chemical_formula_sum   'Ca1 Zr1 N2'
_cell_volume   55.28205382
_cell_formula_units_Z   1
loop_
 _symmetry_equiv_pos_site_id
 _symmetry_equiv_pos_as_xyz
  1  'x, y, z'
loop_
 _atom_site_type_symbol
 _atom_site_label
 _atom_site_symmetry_multiplicity
 _atom_site_fract_x
 _atom_site_fract_y
 _atom_site_fract_z
 _atom_site_occupancy
  Ca  Ca0  1  0.00000000  0.99999988  0.49999998  1.0
  Zr  Zr1  1  0.99999990  0.99999980  0.99999999  1.0
  N  N2  1  0.33333333  0.66666667  0.78856573  1.0
  N  N3  1  0.66666667  0.33333333  0.21143430  1.0
