# generated using pymatgen
data_Cd2IN
_symmetry_space_group_name_H-M   'P 1'
_cell_length_a   6.68351380
_cell_length_b   6.92653202
_cell_length_c   9.75440529
_cell_angle_alpha   110.77869526
_cell_angle_beta   100.82179233
_cell_angle_gamma   89.97095815
_symmetry_Int_Tables_number   1
_chemical_formula_structural   Cd2IN
_chemical_formula_sum   'Cd8 I4 N4'
_cell_volume   413.61132653
_cell_formula_units_Z   4
loop_
 _symmetry_equiv_pos_site_id
 _symmetry_equiv_pos_as_xyz
  1  'x, y, z'
loop_
 _atom_site_type_symbol
 _atom_site_label
 _atom_site_symmetry_multiplicity
 _atom_site_fract_x
 _atom_site_fract_y
 _atom_site_fract_z
 _atom_site_occupancy
  Cd  Cd0  1  0.19893425  0.16008177  0.83926813  1.0
  Cd  Cd1  1  0.30109271  0.32088762  0.16054009  1.0
  Cd  Cd2  1  0.80106706  0.83991157  0.16072511  1.0
  Cd  Cd3  1  0.69889876  0.67909686  0.83945183  1.0
  Cd  Cd4  1  0.18085553  0.15501552  0.47296123  1.0
  Cd  Cd5  1  0.31900472  0.68179397  0.52681067  1.0
  Cd  Cd6  1  0.81916843  0.84498924  0.52705806  1.0
  Cd  Cd7  1  0.68101869  0.31822612  0.47320433  1.0
  I  I8  1  0.31963372  0.78857385  0.21117029  1.0
  I  I9  1  0.18019511  0.57703755  0.78851689  1.0
  I  I10  1  0.68036200  0.21143148  0.78882759  1.0
  I  I11  1  0.81980459  0.42295526  0.21147985  1.0
  N  N12  1  0.15444842  0.95495432  0.60430090  1.0
  N  N13  1  0.34561242  0.35049552  0.39550501  1.0
  N  N14  1  0.84553842  0.04505820  0.39569254  1.0
  N  N15  1  0.65436517  0.64949114  0.60448747  1.0
