# generated using pymatgen
data_CdBrF
_symmetry_space_group_name_H-M   'P 1'
_cell_length_a   4.44634718
_cell_length_b   4.44634614
_cell_length_c   4.44634774
_cell_angle_alpha   59.99992198
_cell_angle_beta   59.99992459
_cell_angle_gamma   59.99990064
_symmetry_Int_Tables_number   1
_chemical_formula_structural   CdBrF
_chemical_formula_sum   'Cd1 Br1 F1'
_cell_volume   62.15759988
_cell_formula_units_Z   1
loop_
 _symmetry_equiv_pos_site_id
 _symmetry_equiv_pos_as_xyz
  1  'x, y, z'
loop_
 _atom_site_type_symbol
 _atom_site_label
 _atom_site_symmetry_multiplicity
 _atom_site_fract_x
 _atom_site_fract_y
 _atom_site_fract_z
 _atom_site_occupancy
  Cd  Cd0  1  0.00000008  0.00000016  0.00000008  1.0
  Br  Br1  1  0.25000008  0.25000011  0.25000005  1.0
  F  F2  1  0.74999984  0.74999974  0.74999987  1.0
