# generated using pymatgen
data_CdHgI4
_symmetry_space_group_name_H-M   'P 1'
_cell_length_a   13.90048182
_cell_length_b   6.33185687
_cell_length_c   6.37541727
_cell_angle_alpha   89.96485632
_cell_angle_beta   90.00000298
_cell_angle_gamma   90.00000347
_symmetry_Int_Tables_number   1
_chemical_formula_structural   CdHgI4
_chemical_formula_sum   'Cd2 Hg2 I8'
_cell_volume   561.13773666
_cell_formula_units_Z   2
loop_
 _symmetry_equiv_pos_site_id
 _symmetry_equiv_pos_as_xyz
  1  'x, y, z'
loop_
 _atom_site_type_symbol
 _atom_site_label
 _atom_site_symmetry_multiplicity
 _atom_site_fract_x
 _atom_site_fract_y
 _atom_site_fract_z
 _atom_site_occupancy
  Cd  Cd0  1  0.73962405  0.49999998  0.24999999  1.0
  Cd  Cd1  1  0.26037595  0.50000001  0.74999999  1.0
  Hg  Hg2  1  0.25495684  0.99999997  0.24999992  1.0
  Hg  Hg3  1  0.74504317  0.00000004  0.75000009  1.0
  I  I4  1  0.13089952  0.74495183  0.99619926  1.0
  I  I5  1  0.13089952  0.25504818  0.50380066  1.0
  I  I6  1  0.86910048  0.25504816  0.00380075  1.0
  I  I7  1  0.86910048  0.74495186  0.49619935  1.0
  I  I8  1  0.38443893  0.74983524  0.49877062  1.0
  I  I9  1  0.38443894  0.25016477  0.00122937  1.0
  I  I10  1  0.61556107  0.25016475  0.50122936  1.0
  I  I11  1  0.61556106  0.74983521  0.99877063  1.0
