# generated using pymatgen
data_CdPbF4
_symmetry_space_group_name_H-M   'P 1'
_cell_length_a   5.77503687
_cell_length_b   5.93239000
_cell_length_c   5.94968585
_cell_angle_alpha   90.00000454
_cell_angle_beta   90.00000020
_cell_angle_gamma   96.24874587
_symmetry_Int_Tables_number   1
_chemical_formula_structural   CdPbF4
_chemical_formula_sum   'Cd2 Pb2 F8'
_cell_volume   202.62383473
_cell_formula_units_Z   2
loop_
 _symmetry_equiv_pos_site_id
 _symmetry_equiv_pos_as_xyz
  1  'x, y, z'
loop_
 _atom_site_type_symbol
 _atom_site_label
 _atom_site_symmetry_multiplicity
 _atom_site_fract_x
 _atom_site_fract_y
 _atom_site_fract_z
 _atom_site_occupancy
  Cd  Cd0  1  0.99999999  0.74999995  0.80656469  1.0
  Cd  Cd1  1  0.00000001  0.25000005  0.19343533  1.0
  Pb  Pb2  1  0.49999999  0.74999997  0.26877131  1.0
  Pb  Pb3  1  0.50000000  0.25000003  0.73122868  1.0
  F  F4  1  0.76550792  0.00098308  0.95537713  1.0
  F  F5  1  0.23449215  0.99901693  0.04462285  1.0
  F  F6  1  0.23449208  0.49901699  0.95537722  1.0
  F  F7  1  0.76550788  0.50098302  0.04462278  1.0
  F  F8  1  0.74128565  0.58757788  0.56168384  1.0
  F  F9  1  0.25871432  0.41242211  0.43831618  1.0
  F  F10  1  0.25871431  0.91242212  0.56168383  1.0
  F  F11  1  0.74128569  0.08757786  0.43831617  1.0
