# generated using pymatgen
data_CdPdSe2
_symmetry_space_group_name_H-M   'P 1'
_cell_length_a   3.83684955
_cell_length_b   7.58845820
_cell_length_c   7.15615666
_cell_angle_alpha   111.64769623
_cell_angle_beta   89.99999632
_cell_angle_gamma   89.99999941
_symmetry_Int_Tables_number   1
_chemical_formula_structural   CdPdSe2
_chemical_formula_sum   'Cd2 Pd2 Se4'
_cell_volume   193.66154841
_cell_formula_units_Z   2
loop_
 _symmetry_equiv_pos_site_id
 _symmetry_equiv_pos_as_xyz
  1  'x, y, z'
loop_
 _atom_site_type_symbol
 _atom_site_label
 _atom_site_symmetry_multiplicity
 _atom_site_fract_x
 _atom_site_fract_y
 _atom_site_fract_z
 _atom_site_occupancy
  Cd  Cd0  1  0.00000002  0.99999995  0.50000016  1.0
  Cd  Cd1  1  0.99999995  0.49999997  0.49999996  1.0
  Pd  Pd2  1  0.50000001  0.50000001  0.99999999  1.0
  Pd  Pd3  1  0.00000000  0.00000000  0.99999995  1.0
  Se  Se4  1  0.49999999  0.22481751  0.14608210  1.0
  Se  Se5  1  0.00000003  0.34092005  0.76130371  1.0
  Se  Se6  1  0.99999998  0.65908001  0.23869628  1.0
  Se  Se7  1  0.50000002  0.77518249  0.85391784  1.0
