# generated using pymatgen
data_CdSnSb2
_symmetry_space_group_name_H-M   'P 1'
_cell_length_a   5.33439619
_cell_length_b   5.33439632
_cell_length_c   5.33439584
_cell_angle_alpha   59.99997543
_cell_angle_beta   59.99998732
_cell_angle_gamma   59.99996607
_symmetry_Int_Tables_number   1
_chemical_formula_structural   CdSnSb2
_chemical_formula_sum   'Cd1 Sn1 Sb2'
_cell_volume   107.33480077
_cell_formula_units_Z   1
loop_
 _symmetry_equiv_pos_site_id
 _symmetry_equiv_pos_as_xyz
  1  'x, y, z'
loop_
 _atom_site_type_symbol
 _atom_site_label
 _atom_site_symmetry_multiplicity
 _atom_site_fract_x
 _atom_site_fract_y
 _atom_site_fract_z
 _atom_site_occupancy
  Cd  Cd0  1  0.25000018  0.25000001  0.24999979  1.0
  Sn  Sn1  1  0.74999897  0.74999919  0.74999926  1.0
  Sb  Sb2  1  0.49999993  0.49999988  0.49999999  1.0
  Sb  Sb3  1  0.99999991  0.99999991  0.99999997  1.0
