# generated using pymatgen
data_CeAsCl
_symmetry_space_group_name_H-M   'P 1'
_cell_length_a   4.66268542
_cell_length_b   4.66268375
_cell_length_c   4.66268516
_cell_angle_alpha   59.99988754
_cell_angle_beta   59.99992258
_cell_angle_gamma   59.99994439
_symmetry_Int_Tables_number   1
_chemical_formula_structural   CeAsCl
_chemical_formula_sum   'Ce1 As1 Cl1'
_cell_volume   71.67907028
_cell_formula_units_Z   1
loop_
 _symmetry_equiv_pos_site_id
 _symmetry_equiv_pos_as_xyz
  1  'x, y, z'
loop_
 _atom_site_type_symbol
 _atom_site_label
 _atom_site_symmetry_multiplicity
 _atom_site_fract_x
 _atom_site_fract_y
 _atom_site_fract_z
 _atom_site_occupancy
  Ce  Ce0  1  0.50000000  0.50000005  0.49999996  1.0
  As  As1  1  0.00000010  0.99999989  0.00000007  1.0
  Cl  Cl2  1  0.74999991  0.75000007  0.74999997  1.0
