# generated using pymatgen
data_CeNiSb2
_symmetry_space_group_name_H-M   'P 1'
_cell_length_a   5.07413178
_cell_length_b   5.07080697
_cell_length_c   5.08132775
_cell_angle_alpha   59.91751993
_cell_angle_beta   59.84691141
_cell_angle_gamma   60.14431679
_symmetry_Int_Tables_number   1
_chemical_formula_structural   CeNiSb2
_chemical_formula_sum   'Ce1 Ni1 Sb2'
_cell_volume   92.38361703
_cell_formula_units_Z   1
loop_
 _symmetry_equiv_pos_site_id
 _symmetry_equiv_pos_as_xyz
  1  'x, y, z'
loop_
 _atom_site_type_symbol
 _atom_site_label
 _atom_site_symmetry_multiplicity
 _atom_site_fract_x
 _atom_site_fract_y
 _atom_site_fract_z
 _atom_site_occupancy
  Ce  Ce0  1  0.99999999  0.99999999  0.00000001  1.0
  Ni  Ni1  1  0.50000003  0.50000000  0.49999997  1.0
  Sb  Sb2  1  0.74990700  0.75002937  0.74996078  1.0
  Sb  Sb3  1  0.25009297  0.24997063  0.25003925  1.0
