# generated using pymatgen
data_CePtN2
_symmetry_space_group_name_H-M   'P 1'
_cell_length_a   3.29993172
_cell_length_b   6.01772225
_cell_length_c   8.40129347
_cell_angle_alpha   44.73544644
_cell_angle_beta   89.99209345
_cell_angle_gamma   89.98587687
_symmetry_Int_Tables_number   1
_chemical_formula_structural   CePtN2
_chemical_formula_sum   'Ce2 Pt2 N4'
_cell_volume   117.42313407
_cell_formula_units_Z   2
loop_
 _symmetry_equiv_pos_site_id
 _symmetry_equiv_pos_as_xyz
  1  'x, y, z'
loop_
 _atom_site_type_symbol
 _atom_site_label
 _atom_site_symmetry_multiplicity
 _atom_site_fract_x
 _atom_site_fract_y
 _atom_site_fract_z
 _atom_site_occupancy
  Ce  Ce0  1  0.00000202  0.49999942  0.00000050  1.0
  Ce  Ce1  1  0.99999984  0.50000060  0.49999964  1.0
  Pt  Pt2  1  0.49999979  0.99999949  0.50000050  1.0
  Pt  Pt3  1  0.99999957  0.00000029  0.99999953  1.0
  N  N4  1  0.00001921  0.70408639  0.66171530  1.0
  N  N5  1  0.50003017  0.12658122  0.79439220  1.0
  N  N6  1  0.49996923  0.87341987  0.20560680  1.0
  N  N7  1  0.99998015  0.29591270  0.33828554  1.0
