# generated using pymatgen
data_CeSeF
_symmetry_space_group_name_H-M   'P 1'
_cell_length_a   4.73365531
_cell_length_b   4.73382538
_cell_length_c   4.73466042
_cell_angle_alpha   60.00958213
_cell_angle_beta   59.98641637
_cell_angle_gamma   60.01447412
_symmetry_Int_Tables_number   1
_chemical_formula_structural   CeSeF
_chemical_formula_sum   'Ce1 Se1 F1'
_cell_volume   75.02690202
_cell_formula_units_Z   1
loop_
 _symmetry_equiv_pos_site_id
 _symmetry_equiv_pos_as_xyz
  1  'x, y, z'
loop_
 _atom_site_type_symbol
 _atom_site_label
 _atom_site_symmetry_multiplicity
 _atom_site_fract_x
 _atom_site_fract_y
 _atom_site_fract_z
 _atom_site_occupancy
  Ce  Ce0  1  0.74999640  0.74999435  0.75000487  1.0
  Se  Se1  1  0.00000462  0.00000352  0.99999678  1.0
  F  F2  1  0.24999899  0.25000212  0.24999835  1.0
