# generated using pymatgen
data_CoICl
_symmetry_space_group_name_H-M   'P 1'
_cell_length_a   4.69282587
_cell_length_b   4.69282259
_cell_length_c   4.69283727
_cell_angle_alpha   59.99975573
_cell_angle_beta   59.99978257
_cell_angle_gamma   59.99969077
_symmetry_Int_Tables_number   1
_chemical_formula_structural   CoICl
_chemical_formula_sum   'Co1 I1 Cl1'
_cell_volume   73.07798141
_cell_formula_units_Z   1
loop_
 _symmetry_equiv_pos_site_id
 _symmetry_equiv_pos_as_xyz
  1  'x, y, z'
loop_
 _atom_site_type_symbol
 _atom_site_label
 _atom_site_symmetry_multiplicity
 _atom_site_fract_x
 _atom_site_fract_y
 _atom_site_fract_z
 _atom_site_occupancy
  Co  Co0  1  0.99999980  0.99999975  0.00000023  1.0
  I  I1  1  0.24999998  0.25000062  0.24999973  1.0
  Cl  Cl2  1  0.75000021  0.74999963  0.75000004  1.0
