# generated using pymatgen
data_CoP2Rh
_symmetry_space_group_name_H-M   'P 1'
_cell_length_a   3.42522743
_cell_length_b   5.51259179
_cell_length_c   9.04590578
_cell_angle_alpha   92.45154763
_cell_angle_beta   89.99999825
_cell_angle_gamma   89.99999914
_symmetry_Int_Tables_number   1
_chemical_formula_structural   CoP2Rh
_chemical_formula_sum   'Co3 P6 Rh3'
_cell_volume   170.64738506
_cell_formula_units_Z   3
loop_
 _symmetry_equiv_pos_site_id
 _symmetry_equiv_pos_as_xyz
  1  'x, y, z'
loop_
 _atom_site_type_symbol
 _atom_site_label
 _atom_site_symmetry_multiplicity
 _atom_site_fract_x
 _atom_site_fract_y
 _atom_site_fract_z
 _atom_site_occupancy
  Co  Co0  1  0.00000011  0.19040166  0.24564021  1.0
  Co  Co1  1  0.00000010  0.80957346  0.75435819  1.0
  Co  Co2  1  0.00000009  0.00000720  0.99999284  1.0
  P  P3  1  0.50000005  0.23235516  0.08934138  1.0
  P  P4  1  0.50000005  0.75130144  0.60192109  1.0
  P  P5  1  0.50000006  0.76764114  0.91065724  1.0
  P  P6  1  0.50000001  0.24869800  0.39808230  1.0
  P  P7  1  0.00000004  0.21145017  0.76408186  1.0
  P  P8  1  0.00000003  0.78852668  0.23592846  1.0
  Rh  Rh9  1  0.99999999  0.50001895  0.49997749  1.0
  Rh  Rh10  1  0.99999970  0.50000534  0.00001080  1.0
  Rh  Rh11  1  0.99999976  0.00002081  0.50000814  1.0
