# generated using pymatgen
data_CoPdF4
_symmetry_space_group_name_H-M   'P 1'
_cell_length_a   4.90989858
_cell_length_b   5.39151507
_cell_length_c   5.92207504
_cell_angle_alpha   89.99800569
_cell_angle_beta   89.99966709
_cell_angle_gamma   89.94054692
_symmetry_Int_Tables_number   1
_chemical_formula_structural   CoPdF4
_chemical_formula_sum   'Co2 Pd2 F8'
_cell_volume   156.76785527
_cell_formula_units_Z   2
loop_
 _symmetry_equiv_pos_site_id
 _symmetry_equiv_pos_as_xyz
  1  'x, y, z'
loop_
 _atom_site_type_symbol
 _atom_site_label
 _atom_site_symmetry_multiplicity
 _atom_site_fract_x
 _atom_site_fract_y
 _atom_site_fract_z
 _atom_site_occupancy
  Co  Co0  1  0.50001645  0.24997898  0.64642509  1.0
  Co  Co1  1  0.49999064  0.75001029  0.35357486  1.0
  Pd  Pd2  1  0.99999759  0.25000134  0.15426135  1.0
  Pd  Pd3  1  0.00000316  0.74999883  0.84573860  1.0
  F  F4  1  0.72484801  0.43140181  0.39766822  1.0
  F  F5  1  0.27513857  0.06858945  0.39767971  1.0
  F  F6  1  0.27515158  0.56859910  0.60233798  1.0
  F  F7  1  0.72486118  0.93141150  0.60231420  1.0
  F  F8  1  0.75294746  0.90853366  0.12400774  1.0
  F  F9  1  0.24705289  0.59146499  0.12401048  1.0
  F  F10  1  0.24704898  0.09147065  0.87598652  1.0
  F  F11  1  0.75294347  0.40853939  0.87599525  1.0
