# generated using pymatgen
data_CrCdTe2
_symmetry_space_group_name_H-M   'P 1'
_cell_length_a   4.20340167
_cell_length_b   4.20340529
_cell_length_c   6.89301186
_cell_angle_alpha   90.00002953
_cell_angle_beta   90.00004511
_cell_angle_gamma   120.00010069
_symmetry_Int_Tables_number   1
_chemical_formula_structural   CrCdTe2
_chemical_formula_sum   'Cr1 Cd1 Te2'
_cell_volume   105.47301863
_cell_formula_units_Z   1
loop_
 _symmetry_equiv_pos_site_id
 _symmetry_equiv_pos_as_xyz
  1  'x, y, z'
loop_
 _atom_site_type_symbol
 _atom_site_label
 _atom_site_symmetry_multiplicity
 _atom_site_fract_x
 _atom_site_fract_y
 _atom_site_fract_z
 _atom_site_occupancy
  Cr  Cr0  1  0.00000004  0.99999993  0.50000000  1.0
  Cd  Cd1  1  0.99999999  0.99999998  0.99999999  1.0
  Te  Te2  1  0.33333333  0.66666667  0.28779792  1.0
  Te  Te3  1  0.66666667  0.33333333  0.71220209  1.0
