# generated using pymatgen
data_CrHS
_symmetry_space_group_name_H-M   'P 1'
_cell_length_a   3.81027666
_cell_length_b   3.81027511
_cell_length_c   3.81027555
_cell_angle_alpha   60.00000472
_cell_angle_beta   59.99997472
_cell_angle_gamma   59.99999496
_symmetry_Int_Tables_number   1
_chemical_formula_structural   CrHS
_chemical_formula_sum   'Cr1 H1 S1'
_cell_volume   39.11597378
_cell_formula_units_Z   1
loop_
 _symmetry_equiv_pos_site_id
 _symmetry_equiv_pos_as_xyz
  1  'x, y, z'
loop_
 _atom_site_type_symbol
 _atom_site_label
 _atom_site_symmetry_multiplicity
 _atom_site_fract_x
 _atom_site_fract_y
 _atom_site_fract_z
 _atom_site_occupancy
  Cr  Cr0  1  0.99999999  0.00000001  0.99999998  1.0
  H  H1  1  0.25000003  0.25000001  0.25000002  1.0
  S  S2  1  0.74999998  0.74999998  0.75000001  1.0
