# generated using pymatgen
data_CsAuI4
_symmetry_space_group_name_H-M   'P 1'
_cell_length_a   5.44535061
_cell_length_b   14.51461189
_cell_length_c   8.54646255
_cell_angle_alpha   89.54546935
_cell_angle_beta   89.96498065
_cell_angle_gamma   89.88871375
_symmetry_Int_Tables_number   1
_chemical_formula_structural   CsAuI4
_chemical_formula_sum   'Cs2 Au2 I8'
_cell_volume   675.46539931
_cell_formula_units_Z   2
loop_
 _symmetry_equiv_pos_site_id
 _symmetry_equiv_pos_as_xyz
  1  'x, y, z'
loop_
 _atom_site_type_symbol
 _atom_site_label
 _atom_site_symmetry_multiplicity
 _atom_site_fract_x
 _atom_site_fract_y
 _atom_site_fract_z
 _atom_site_occupancy
  Cs  Cs0  1  0.55770630  0.24990496  0.74991447  1.0
  Cs  Cs1  1  0.44227149  0.75012376  0.25009651  1.0
  Au  Au2  1  0.00068396  0.50006764  0.49991078  1.0
  Au  Au3  1  0.99879046  0.00010773  0.99985127  1.0
  I  I4  1  0.93522112  0.67614602  0.58176878  1.0
  I  I5  1  0.93530840  0.82396532  0.91870725  1.0
  I  I6  1  0.95376635  0.95247439  0.30166938  1.0
  I  I7  1  0.95326955  0.54695874  0.19786376  1.0
  I  I8  1  0.04677300  0.04740211  0.69844670  1.0
  I  I9  1  0.04647513  0.45296104  0.80221958  1.0
  I  I10  1  0.06524808  0.17604726  0.08134579  1.0
  I  I11  1  0.06448615  0.32384104  0.41820572  1.0
