# generated using pymatgen
data_CsMnF4
_symmetry_space_group_name_H-M   'P 1'
_cell_length_a   7.13926348
_cell_length_b   5.67766507
_cell_length_c   5.83649332
_cell_angle_alpha   89.58301066
_cell_angle_beta   89.99996225
_cell_angle_gamma   89.99995532
_symmetry_Int_Tables_number   1
_chemical_formula_structural   CsMnF4
_chemical_formula_sum   'Cs2 Mn2 F8'
_cell_volume   236.57217944
_cell_formula_units_Z   2
loop_
 _symmetry_equiv_pos_site_id
 _symmetry_equiv_pos_as_xyz
  1  'x, y, z'
loop_
 _atom_site_type_symbol
 _atom_site_label
 _atom_site_symmetry_multiplicity
 _atom_site_fract_x
 _atom_site_fract_y
 _atom_site_fract_z
 _atom_site_occupancy
  Cs  Cs0  1  0.83814303  0.00000007  0.74999992  1.0
  Cs  Cs1  1  0.16185744  0.99999994  0.25000008  1.0
  Mn  Mn2  1  0.38038176  0.49999939  0.74999922  1.0
  Mn  Mn3  1  0.61961229  0.50000050  0.25000073  1.0
  F  F4  1  0.19747487  0.28731341  0.66496387  1.0
  F  F5  1  0.80252730  0.28731134  0.16496342  1.0
  F  F6  1  0.56669904  0.31887063  0.59505723  1.0
  F  F7  1  0.43330121  0.31886972  0.09505671  1.0
  F  F8  1  0.56669937  0.68112986  0.90494295  1.0
  F  F9  1  0.43330153  0.68112984  0.40494313  1.0
  F  F10  1  0.19747486  0.71268703  0.83503593  1.0
  F  F11  1  0.80252732  0.71268826  0.33503681  1.0
