# generated using pymatgen
data_CsRbH2
_symmetry_space_group_name_H-M   'P 1'
_cell_length_a   7.60770751
_cell_length_b   6.27674317
_cell_length_c   6.27674317
_cell_angle_alpha   89.96699939
_cell_angle_beta   114.18236621
_cell_angle_gamma   114.18236651
_symmetry_Int_Tables_number   1
_chemical_formula_structural   CsRbH2
_chemical_formula_sum   'Cs2 Rb2 H4'
_cell_volume   244.34077440
_cell_formula_units_Z   2
loop_
 _symmetry_equiv_pos_site_id
 _symmetry_equiv_pos_as_xyz
  1  'x, y, z'
loop_
 _atom_site_type_symbol
 _atom_site_label
 _atom_site_symmetry_multiplicity
 _atom_site_fract_x
 _atom_site_fract_y
 _atom_site_fract_z
 _atom_site_occupancy
  Cs  Cs0  1  0.75000000  0.37031945  0.62968054  1.0
  Cs  Cs1  1  0.25000000  0.62968054  0.37031946  1.0
  Rb  Rb2  1  0.25000000  0.12752534  0.87247466  1.0
  Rb  Rb3  1  0.75000000  0.87247466  0.12752534  1.0
  H  H4  1  0.23121790  0.12231262  0.35882788  1.0
  H  H5  1  0.26878209  0.64117212  0.87768737  1.0
  H  H6  1  0.73121791  0.35882788  0.12231263  1.0
  H  H7  1  0.76878210  0.87768738  0.64117212  1.0
