# generated using pymatgen
data_CsSmBr4
_symmetry_space_group_name_H-M   'P 1'
_cell_length_a   8.23690035
_cell_length_b   7.82591554
_cell_length_c   8.41280772
_cell_angle_alpha   90.00066743
_cell_angle_beta   89.99966814
_cell_angle_gamma   81.27410219
_symmetry_Int_Tables_number   1
_chemical_formula_structural   CsSmBr4
_chemical_formula_sum   'Cs2 Sm2 Br8'
_cell_volume   536.02350641
_cell_formula_units_Z   2
loop_
 _symmetry_equiv_pos_site_id
 _symmetry_equiv_pos_as_xyz
  1  'x, y, z'
loop_
 _atom_site_type_symbol
 _atom_site_label
 _atom_site_symmetry_multiplicity
 _atom_site_fract_x
 _atom_site_fract_y
 _atom_site_fract_z
 _atom_site_occupancy
  Cs  Cs0  1  0.50000123  0.25000121  0.72105578  1.0
  Cs  Cs1  1  0.49999881  0.74999869  0.27894421  1.0
  Sm  Sm2  1  0.00000070  0.75000416  0.84298783  1.0
  Sm  Sm3  1  0.99999925  0.24999585  0.15701423  1.0
  Br  Br4  1  0.76473683  0.85708348  0.61569951  1.0
  Br  Br5  1  0.23526193  0.64291891  0.61570099  1.0
  Br  Br6  1  0.23526222  0.14291684  0.38429955  1.0
  Br  Br7  1  0.76473911  0.35708075  0.38429820  1.0
  Br  Br8  1  0.20356714  0.51369609  0.06916907  1.0
  Br  Br9  1  0.79643493  0.98630317  0.06916788  1.0
  Br  Br10  1  0.79643282  0.48630403  0.93083082  1.0
  Br  Br11  1  0.20356503  0.01369682  0.93083192  1.0
