# generated using pymatgen
data_CsTlI2
_symmetry_space_group_name_H-M   'P 1'
_cell_length_a   10.19149818
_cell_length_b   10.19149836
_cell_length_c   18.99287403
_cell_angle_alpha   81.81017777
_cell_angle_beta   81.81016140
_cell_angle_gamma   90.02319630
_symmetry_Int_Tables_number   1
_chemical_formula_structural   CsTlI2
_chemical_formula_sum   'Cs8 Tl8 I16'
_cell_volume   1932.26220704
_cell_formula_units_Z   8
loop_
 _symmetry_equiv_pos_site_id
 _symmetry_equiv_pos_as_xyz
  1  'x, y, z'
loop_
 _atom_site_type_symbol
 _atom_site_label
 _atom_site_symmetry_multiplicity
 _atom_site_fract_x
 _atom_site_fract_y
 _atom_site_fract_z
 _atom_site_occupancy
  Cs  Cs0  1  0.34043866  0.21867214  0.63766142  1.0
  Cs  Cs1  1  0.65956130  0.78132782  0.36233858  1.0
  Cs  Cs2  1  0.78132768  0.65956129  0.86233858  1.0
  Cs  Cs3  1  0.21867226  0.34043874  0.13766141  1.0
  Cs  Cs4  1  0.77992721  0.15804545  0.87406748  1.0
  Cs  Cs5  1  0.22007270  0.84195455  0.12593252  1.0
  Cs  Cs6  1  0.84195456  0.22007267  0.62593251  1.0
  Cs  Cs7  1  0.15804544  0.77992745  0.37406750  1.0
  Tl  Tl8  1  0.28276495  0.91352465  0.86104716  1.0
  Tl  Tl9  1  0.71723505  0.08647538  0.13895282  1.0
  Tl  Tl10  1  0.08647533  0.71723503  0.63895283  1.0
  Tl  Tl11  1  0.91352464  0.28276498  0.36104718  1.0
  Tl  Tl12  1  0.58886110  0.71622630  0.64259692  1.0
  Tl  Tl13  1  0.41113889  0.28377370  0.35740308  1.0
  Tl  Tl14  1  0.28377360  0.41113879  0.85740310  1.0
  Tl  Tl15  1  0.71622638  0.58886122  0.14259691  1.0
  I  I16  1  0.58354366  0.96259727  0.75191311  1.0
  I  I17  1  0.41645632  0.03740276  0.24808688  1.0
  I  I18  1  0.03740264  0.41645639  0.74808690  1.0
  I  I19  1  0.96259732  0.58354364  0.25191311  1.0
  I  I20  1  0.37344684  0.74077034  0.52421743  1.0
  I  I21  1  0.62655314  0.25922972  0.47578258  1.0
  I  I22  1  0.25922988  0.62655318  0.97578254  1.0
  I  I23  1  0.74077038  0.37344686  0.02421744  1.0
  I  I24  1  0.58678084  0.41321906  0.74999998  1.0
  I  I25  1  0.41321912  0.58678097  0.25000003  1.0
  I  I26  1  0.25758352  0.13698331  0.97680943  1.0
  I  I27  1  0.74241670  0.86301669  0.02319057  1.0
  I  I28  1  0.86301665  0.74241646  0.52319060  1.0
  I  I29  1  0.13698334  0.25758320  0.47680940  1.0
  I  I30  1  0.03961466  0.96038533  0.75000000  1.0
  I  I31  1  0.96038527  0.03961468  0.25000001  1.0
