# generated using pymatgen
data_CsTlTe2
_symmetry_space_group_name_H-M   'P 1'
_cell_length_a   9.12488497
_cell_length_b   9.12488764
_cell_length_c   18.55147657
_cell_angle_alpha   82.89314762
_cell_angle_beta   82.89313812
_cell_angle_gamma   89.99863234
_symmetry_Int_Tables_number   1
_chemical_formula_structural   CsTlTe2
_chemical_formula_sum   'Cs8 Tl8 Te16'
_cell_volume   1520.83492357
_cell_formula_units_Z   8
loop_
 _symmetry_equiv_pos_site_id
 _symmetry_equiv_pos_as_xyz
  1  'x, y, z'
loop_
 _atom_site_type_symbol
 _atom_site_label
 _atom_site_symmetry_multiplicity
 _atom_site_fract_x
 _atom_site_fract_y
 _atom_site_fract_z
 _atom_site_occupancy
  Cs  Cs0  1  0.34538335  0.22225981  0.61625128  1.0
  Cs  Cs1  1  0.65461662  0.77774013  0.38374872  1.0
  Cs  Cs2  1  0.77774013  0.65461662  0.88374872  1.0
  Cs  Cs3  1  0.22225988  0.34538339  0.11625126  1.0
  Cs  Cs4  1  0.77405098  0.15106510  0.89592537  1.0
  Cs  Cs5  1  0.22594908  0.84893487  0.10407464  1.0
  Cs  Cs6  1  0.84893489  0.22594904  0.60407463  1.0
  Cs  Cs7  1  0.15106509  0.77405104  0.39592534  1.0
  Tl  Tl8  1  0.29072877  0.91620778  0.83581221  1.0
  Tl  Tl9  1  0.70927123  0.08379222  0.16418779  1.0
  Tl  Tl10  1  0.08379227  0.70927124  0.66418775  1.0
  Tl  Tl11  1  0.91620773  0.29072874  0.33581225  1.0
  Tl  Tl12  1  0.58355237  0.70913597  0.66461678  1.0
  Tl  Tl13  1  0.41644762  0.29086404  0.33538323  1.0
  Tl  Tl14  1  0.29086407  0.41644764  0.83538320  1.0
  Tl  Tl15  1  0.70913594  0.58355235  0.16461681  1.0
  Te  Te16  1  0.57885449  0.95555288  0.74961548  1.0
  Te  Te17  1  0.42114551  0.04444713  0.25038452  1.0
  Te  Te18  1  0.04444716  0.42114547  0.75038453  1.0
  Te  Te19  1  0.95555286  0.57885453  0.24961547  1.0
  Te  Te20  1  0.35864176  0.73288401  0.56699964  1.0
  Te  Te21  1  0.64135823  0.26711598  0.43300037  1.0
  Te  Te22  1  0.26711599  0.64135823  0.93300038  1.0
  Te  Te23  1  0.73288399  0.35864178  0.06699962  1.0
  Te  Te24  1  0.57940604  0.42059391  0.75000001  1.0
  Te  Te25  1  0.42059395  0.57940608  0.25000000  1.0
  Te  Te26  1  0.26732741  0.14249682  0.93455510  1.0
  Te  Te27  1  0.73267260  0.85750318  0.06544491  1.0
  Te  Te28  1  0.85750316  0.73267258  0.56544492  1.0
  Te  Te29  1  0.14249682  0.26732741  0.43455508  1.0
  Te  Te30  1  0.04515558  0.95484444  0.75000000  1.0
  Te  Te31  1  0.95484444  0.04515557  0.24999999  1.0
