# generated using pymatgen
data_CsVO2
_symmetry_space_group_name_H-M   'P 1'
_cell_length_a   4.43793185
_cell_length_b   4.43792970
_cell_length_c   4.43792449
_cell_angle_alpha   60.00026841
_cell_angle_beta   60.00030138
_cell_angle_gamma   60.00008404
_symmetry_Int_Tables_number   1
_chemical_formula_structural   CsVO2
_chemical_formula_sum   'Cs1 V1 O2'
_cell_volume   61.80563943
_cell_formula_units_Z   1
loop_
 _symmetry_equiv_pos_site_id
 _symmetry_equiv_pos_as_xyz
  1  'x, y, z'
loop_
 _atom_site_type_symbol
 _atom_site_label
 _atom_site_symmetry_multiplicity
 _atom_site_fract_x
 _atom_site_fract_y
 _atom_site_fract_z
 _atom_site_occupancy
  Cs  Cs0  1  0.99999999  0.00000002  0.99999999  1.0
  V  V1  1  0.50000004  0.49999993  0.50000003  1.0
  O  O2  1  0.75000004  0.75000009  0.75000028  1.0
  O  O3  1  0.24999993  0.24999996  0.24999970  1.0
