# generated using pymatgen
data_Cu2ICl
_symmetry_space_group_name_H-M   'P 1'
_cell_length_a   4.63184203
_cell_length_b   7.48392477
_cell_length_c   6.72528311
_cell_angle_alpha   70.51649059
_cell_angle_beta   89.99949326
_cell_angle_gamma   89.99960810
_symmetry_Int_Tables_number   1
_chemical_formula_structural   Cu2ICl
_chemical_formula_sum   'Cu4 I2 Cl2'
_cell_volume   219.77815273
_cell_formula_units_Z   2
loop_
 _symmetry_equiv_pos_site_id
 _symmetry_equiv_pos_as_xyz
  1  'x, y, z'
loop_
 _atom_site_type_symbol
 _atom_site_label
 _atom_site_symmetry_multiplicity
 _atom_site_fract_x
 _atom_site_fract_y
 _atom_site_fract_z
 _atom_site_occupancy
  Cu  Cu0  1  0.50000185  0.22031429  0.17915870  1.0
  Cu  Cu1  1  0.99999829  0.28881123  0.75094720  1.0
  Cu  Cu2  1  0.00000167  0.71118422  0.24904893  1.0
  Cu  Cu3  1  0.49999813  0.77967656  0.82082132  1.0
  I  I4  1  0.50000356  0.58830469  0.21809111  1.0
  I  I5  1  0.49999639  0.41169087  0.78189543  1.0
  Cl  Cl6  1  0.99999991  0.00001289  0.00003112  1.0
  Cl  Cl7  1  0.50000019  0.00000524  0.50000619  1.0
