# generated using pymatgen
data_CuAgBr2
_symmetry_space_group_name_H-M   'P 1'
_cell_length_a   4.10224648
_cell_length_b   6.71437446
_cell_length_c   7.20039937
_cell_angle_alpha   92.81597601
_cell_angle_beta   89.99999920
_cell_angle_gamma   89.99999755
_symmetry_Int_Tables_number   1
_chemical_formula_structural   CuAgBr2
_chemical_formula_sum   'Cu2 Ag2 Br4'
_cell_volume   198.08845157
_cell_formula_units_Z   2
loop_
 _symmetry_equiv_pos_site_id
 _symmetry_equiv_pos_as_xyz
  1  'x, y, z'
loop_
 _atom_site_type_symbol
 _atom_site_label
 _atom_site_symmetry_multiplicity
 _atom_site_fract_x
 _atom_site_fract_y
 _atom_site_fract_z
 _atom_site_occupancy
  Cu  Cu0  1  0.49999997  0.61396260  0.15024307  1.0
  Cu  Cu1  1  0.49999998  0.38605744  0.84975492  1.0
  Ag  Ag2  1  0.00000003  0.99999954  0.00000791  1.0
  Ag  Ag3  1  0.50000000  0.99999097  0.49999625  1.0
  Br  Br4  1  0.50000002  0.24967892  0.17243256  1.0
  Br  Br5  1  0.99999999  0.25160343  0.67939511  1.0
  Br  Br6  1  0.99999997  0.74838735  0.32060058  1.0
  Br  Br7  1  0.50000003  0.75031975  0.82756960  1.0
