# generated using pymatgen
data_DyAlN2
_symmetry_space_group_name_H-M   'P 1'
_cell_length_a   3.27371521
_cell_length_b   5.44883116
_cell_length_c   6.10123060
_cell_angle_alpha   88.01999891
_cell_angle_beta   90.00000135
_cell_angle_gamma   90.00000191
_symmetry_Int_Tables_number   1
_chemical_formula_structural   DyAlN2
_chemical_formula_sum   'Dy2 Al2 N4'
_cell_volume   108.76829301
_cell_formula_units_Z   2
loop_
 _symmetry_equiv_pos_site_id
 _symmetry_equiv_pos_as_xyz
  1  'x, y, z'
loop_
 _atom_site_type_symbol
 _atom_site_label
 _atom_site_symmetry_multiplicity
 _atom_site_fract_x
 _atom_site_fract_y
 _atom_site_fract_z
 _atom_site_occupancy
  Dy  Dy0  1  0.00000000  0.00000000  0.00000000  1.0
  Dy  Dy1  1  0.50000000  0.99999999  0.50000001  1.0
  Al  Al2  1  0.50000001  0.58585748  0.19725495  1.0
  Al  Al3  1  0.50000000  0.41414251  0.80274505  1.0
  N  N4  1  0.50000000  0.26350644  0.12161858  1.0
  N  N5  1  0.99999999  0.25142388  0.67674740  1.0
  N  N6  1  0.00000001  0.74857613  0.32325261  1.0
  N  N7  1  0.50000000  0.73649358  0.87838141  1.0
