# generated using pymatgen
data_DyCl2F
_symmetry_space_group_name_H-M   'P 1'
_cell_length_a   4.33603565
_cell_length_b   4.60257384
_cell_length_c   9.91361237
_cell_angle_alpha   89.70174751
_cell_angle_beta   89.98941451
_cell_angle_gamma   89.99760710
_symmetry_Int_Tables_number   1
_chemical_formula_structural   DyCl2F
_chemical_formula_sum   'Dy2 Cl4 F2'
_cell_volume   197.84252708
_cell_formula_units_Z   2
loop_
 _symmetry_equiv_pos_site_id
 _symmetry_equiv_pos_as_xyz
  1  'x, y, z'
loop_
 _atom_site_type_symbol
 _atom_site_label
 _atom_site_symmetry_multiplicity
 _atom_site_fract_x
 _atom_site_fract_y
 _atom_site_fract_z
 _atom_site_occupancy
  Dy  Dy0  1  0.50000160  0.75134573  0.26312346  1.0
  Dy  Dy1  1  0.49999840  0.24865417  0.73687654  1.0
  Cl  Cl2  1  0.50004912  0.25073745  0.10658711  1.0
  Cl  Cl3  1  0.49995089  0.74926246  0.89341297  1.0
  Cl  Cl4  1  0.50007901  0.74947063  0.58859046  1.0
  Cl  Cl5  1  0.49992099  0.25052926  0.41140954  1.0
  F  F6  1  0.99999912  0.75162391  0.26579539  1.0
  F  F7  1  0.00000088  0.24837638  0.73420452  1.0
