# generated using pymatgen
data_DyCrN2
_symmetry_space_group_name_H-M   'P 1'
_cell_length_a   3.17971164
_cell_length_b   3.17971139
_cell_length_c   5.46886577
_cell_angle_alpha   89.99997172
_cell_angle_beta   90.00001986
_cell_angle_gamma   120.00002247
_symmetry_Int_Tables_number   1
_chemical_formula_structural   DyCrN2
_chemical_formula_sum   'Dy1 Cr1 N2'
_cell_volume   47.88541291
_cell_formula_units_Z   1
loop_
 _symmetry_equiv_pos_site_id
 _symmetry_equiv_pos_as_xyz
  1  'x, y, z'
loop_
 _atom_site_type_symbol
 _atom_site_label
 _atom_site_symmetry_multiplicity
 _atom_site_fract_x
 _atom_site_fract_y
 _atom_site_fract_z
 _atom_site_occupancy
  Dy  Dy0  1  0.99999994  0.00000002  0.99999999  1.0
  Cr  Cr1  1  0.00000004  0.99999994  0.49999999  1.0
  N  N2  1  0.33333333  0.66666667  0.28532993  1.0
  N  N3  1  0.66666667  0.33333333  0.71467009  1.0
