# generated using pymatgen
data_DyCuCl4
_symmetry_space_group_name_H-M   'P 1'
_cell_length_a   6.81968538
_cell_length_b   6.83708394
_cell_length_c   8.35422280
_cell_angle_alpha   90.00054910
_cell_angle_beta   89.99926015
_cell_angle_gamma   69.30866467
_symmetry_Int_Tables_number   1
_chemical_formula_structural   DyCuCl4
_chemical_formula_sum   'Dy2 Cu2 Cl8'
_cell_volume   364.40466170
_cell_formula_units_Z   2
loop_
 _symmetry_equiv_pos_site_id
 _symmetry_equiv_pos_as_xyz
  1  'x, y, z'
loop_
 _atom_site_type_symbol
 _atom_site_label
 _atom_site_symmetry_multiplicity
 _atom_site_fract_x
 _atom_site_fract_y
 _atom_site_fract_z
 _atom_site_occupancy
  Dy  Dy0  1  0.99999373  0.25000950  0.13004542  1.0
  Dy  Dy1  1  0.00000648  0.74998945  0.86995369  1.0
  Cu  Cu2  1  0.49998211  0.25000718  0.66107501  1.0
  Cu  Cu3  1  0.50002014  0.74999027  0.33893591  1.0
  Cl  Cl4  1  0.24169485  0.03567388  0.36420500  1.0
  Cl  Cl5  1  0.75827938  0.46434026  0.36420167  1.0
  Cl  Cl6  1  0.75829384  0.96433642  0.63579612  1.0
  Cl  Cl7  1  0.24172932  0.53565495  0.63579921  1.0
  Cl  Cl8  1  0.22796837  0.99214820  0.90479088  1.0
  Cl  Cl9  1  0.77202949  0.50785328  0.90478878  1.0
  Cl  Cl10  1  0.77203855  0.00784905  0.09520330  1.0
  Cl  Cl11  1  0.22796372  0.49214754  0.09520502  1.0
