# generated using pymatgen
data_DyHBr4
_symmetry_space_group_name_H-M   'P 1'
_cell_length_a   9.72191919
_cell_length_b   7.21277876
_cell_length_c   13.54190901
_cell_angle_alpha   70.37423556
_cell_angle_beta   90.00010626
_cell_angle_gamma   90.00005921
_symmetry_Int_Tables_number   1
_chemical_formula_structural   DyHBr4
_chemical_formula_sum   'Dy4 H4 Br16'
_cell_volume   894.42166344
_cell_formula_units_Z   4
loop_
 _symmetry_equiv_pos_site_id
 _symmetry_equiv_pos_as_xyz
  1  'x, y, z'
loop_
 _atom_site_type_symbol
 _atom_site_label
 _atom_site_symmetry_multiplicity
 _atom_site_fract_x
 _atom_site_fract_y
 _atom_site_fract_z
 _atom_site_occupancy
  Dy  Dy0  1  0.89156080  0.75190024  0.99726229  1.0
  Dy  Dy1  1  0.39156075  0.24809988  0.50273754  1.0
  Dy  Dy2  1  0.60843919  0.75190000  0.49726245  1.0
  Dy  Dy3  1  0.10843926  0.24809976  0.00273765  1.0
  H  H4  1  0.74187379  0.75692874  0.24226607  1.0
  H  H5  1  0.75812652  0.75692862  0.74226595  1.0
  H  H6  1  0.24187342  0.24307137  0.25773399  1.0
  H  H7  1  0.25812622  0.24307136  0.75773389  1.0
  Br  Br8  1  0.59380603  0.35250393  0.62276073  1.0
  Br  Br9  1  0.08615349  0.84872862  0.12593833  1.0
  Br  Br10  1  0.66991460  0.79909674  0.12308483  1.0
  Br  Br11  1  0.18087180  0.28968326  0.63596057  1.0
  Br  Br12  1  0.68087196  0.71031669  0.86403970  1.0
  Br  Br13  1  0.90619381  0.35250388  0.12276092  1.0
  Br  Br14  1  0.16991440  0.20090332  0.37691552  1.0
  Br  Br15  1  0.41384650  0.84872856  0.62593836  1.0
  Br  Br16  1  0.58615350  0.15127140  0.37406161  1.0
  Br  Br17  1  0.83008553  0.79909666  0.62308452  1.0
  Br  Br18  1  0.09380626  0.64749611  0.87723909  1.0
  Br  Br19  1  0.31912806  0.28968333  0.13596039  1.0
  Br  Br20  1  0.81912820  0.71031670  0.36403951  1.0
  Br  Br21  1  0.33008548  0.20090337  0.87691521  1.0
  Br  Br22  1  0.91384652  0.15127144  0.87406160  1.0
  Br  Br23  1  0.40619390  0.64749603  0.37723928  1.0
