# generated using pymatgen
data_DyHF4
_symmetry_space_group_name_H-M   'P 1'
_cell_length_a   5.44597712
_cell_length_b   5.05847764
_cell_length_c   5.49921753
_cell_angle_alpha   69.42751642
_cell_angle_beta   90.00831334
_cell_angle_gamma   90.01079804
_symmetry_Int_Tables_number   1
_chemical_formula_structural   DyHF4
_chemical_formula_sum   'Dy2 H2 F8'
_cell_volume   141.83334594
_cell_formula_units_Z   2
loop_
 _symmetry_equiv_pos_site_id
 _symmetry_equiv_pos_as_xyz
  1  'x, y, z'
loop_
 _atom_site_type_symbol
 _atom_site_label
 _atom_site_symmetry_multiplicity
 _atom_site_fract_x
 _atom_site_fract_y
 _atom_site_fract_z
 _atom_site_occupancy
  Dy  Dy0  1  0.71392151  0.49992822  0.75005072  1.0
  Dy  Dy1  1  0.28607816  0.50007174  0.24994934  1.0
  H  H2  1  0.06857581  0.00004736  0.75003211  1.0
  H  H3  1  0.93142421  0.99995264  0.24996783  1.0
  F  F4  1  0.94176876  0.23989914  0.13835045  1.0
  F  F5  1  0.42605398  0.26006374  0.01319833  1.0
  F  F6  1  0.42615246  0.73991348  0.48683834  1.0
  F  F7  1  0.94183768  0.76010247  0.36160085  1.0
  F  F8  1  0.05816231  0.23989748  0.63839913  1.0
  F  F9  1  0.57384778  0.26008650  0.51316193  1.0
  F  F10  1  0.57394619  0.73993631  0.98680146  1.0
  F  F11  1  0.05823115  0.76010093  0.86164950  1.0
