# generated using pymatgen
data_DyHI4
_symmetry_space_group_name_H-M   'P 1'
_cell_length_a   10.22854217
_cell_length_b   7.68916734
_cell_length_c   14.86022215
_cell_angle_alpha   68.19383545
_cell_angle_beta   89.99992124
_cell_angle_gamma   89.99996320
_symmetry_Int_Tables_number   1
_chemical_formula_structural   DyHI4
_chemical_formula_sum   'Dy4 H4 I16'
_cell_volume   1085.11293634
_cell_formula_units_Z   4
loop_
 _symmetry_equiv_pos_site_id
 _symmetry_equiv_pos_as_xyz
  1  'x, y, z'
loop_
 _atom_site_type_symbol
 _atom_site_label
 _atom_site_symmetry_multiplicity
 _atom_site_fract_x
 _atom_site_fract_y
 _atom_site_fract_z
 _atom_site_occupancy
  Dy  Dy0  1  0.89246527  0.75101734  0.99709717  1.0
  Dy  Dy1  1  0.39246521  0.24898257  0.50290298  1.0
  Dy  Dy2  1  0.60753480  0.75101741  0.49709701  1.0
  Dy  Dy3  1  0.10753472  0.24898265  0.00290282  1.0
  H  H4  1  0.74109905  0.75906602  0.24072098  1.0
  H  H5  1  0.75890096  0.75906606  0.74072105  1.0
  H  H6  1  0.24109904  0.24093397  0.25927894  1.0
  H  H7  1  0.25890094  0.24093396  0.75927901  1.0
  I  I8  1  0.60098049  0.33637644  0.62489849  1.0
  I  I9  1  0.09127116  0.83366158  0.12738977  1.0
  I  I10  1  0.66359261  0.79877385  0.11986981  1.0
  I  I11  1  0.17442759  0.28611576  0.63335776  1.0
  I  I12  1  0.67442771  0.71388432  0.86664212  1.0
  I  I13  1  0.89901955  0.33637640  0.12489847  1.0
  I  I14  1  0.16359267  0.20122606  0.38012997  1.0
  I  I15  1  0.40872897  0.83366142  0.62738964  1.0
  I  I16  1  0.59127104  0.16633857  0.37261034  1.0
  I  I17  1  0.83640735  0.79877392  0.61987004  1.0
  I  I18  1  0.10098047  0.66362361  0.87510156  1.0
  I  I19  1  0.32557225  0.28611588  0.13335787  1.0
  I  I20  1  0.82557244  0.71388427  0.36664225  1.0
  I  I21  1  0.33640734  0.20122597  0.88013024  1.0
  I  I22  1  0.90872883  0.16633843  0.87261021  1.0
  I  I23  1  0.39901954  0.66362355  0.37510151  1.0
