# generated using pymatgen
data_DyMnN2
_symmetry_space_group_name_H-M   'P 1'
_cell_length_a   3.22690257
_cell_length_b   5.44097841
_cell_length_c   5.97143542
_cell_angle_alpha   89.82642459
_cell_angle_beta   90.00153648
_cell_angle_gamma   90.00171217
_symmetry_Int_Tables_number   1
_chemical_formula_structural   DyMnN2
_chemical_formula_sum   'Dy2 Mn2 N4'
_cell_volume   104.84303928
_cell_formula_units_Z   2
loop_
 _symmetry_equiv_pos_site_id
 _symmetry_equiv_pos_as_xyz
  1  'x, y, z'
loop_
 _atom_site_type_symbol
 _atom_site_label
 _atom_site_symmetry_multiplicity
 _atom_site_fract_x
 _atom_site_fract_y
 _atom_site_fract_z
 _atom_site_occupancy
  Dy  Dy0  1  0.99999999  0.99998671  0.00000556  1.0
  Dy  Dy1  1  0.49999999  0.99999504  0.49999083  1.0
  Mn  Mn2  1  0.49999705  0.60716996  0.17825517  1.0
  Mn  Mn3  1  0.50000295  0.39284525  0.82175122  1.0
  N  N4  1  0.50000253  0.27877609  0.12466078  1.0
  N  N5  1  0.99999646  0.26261160  0.68905342  1.0
  N  N6  1  0.00000355  0.73739151  0.31094961  1.0
  N  N7  1  0.49999747  0.72122385  0.87533341  1.0
