# generated using pymatgen
data_DyTeCl
_symmetry_space_group_name_H-M   'P 1'
_cell_length_a   5.14458874
_cell_length_b   5.14458758
_cell_length_c   5.14458863
_cell_angle_alpha   59.99998923
_cell_angle_beta   59.99998907
_cell_angle_gamma   59.99999607
_symmetry_Int_Tables_number   1
_chemical_formula_structural   DyTeCl
_chemical_formula_sum   'Dy1 Te1 Cl1'
_cell_volume   96.28015913
_cell_formula_units_Z   1
loop_
 _symmetry_equiv_pos_site_id
 _symmetry_equiv_pos_as_xyz
  1  'x, y, z'
loop_
 _atom_site_type_symbol
 _atom_site_label
 _atom_site_symmetry_multiplicity
 _atom_site_fract_x
 _atom_site_fract_y
 _atom_site_fract_z
 _atom_site_occupancy
  Dy  Dy0  1  0.50000007  0.49999990  0.49999997  1.0
  Te  Te1  1  0.24999997  0.24999997  0.24999997  1.0
  Cl  Cl2  1  0.99999996  0.00000013  0.00000006  1.0
