# generated using pymatgen
data_ErAgH4
_symmetry_space_group_name_H-M   'P 1'
_cell_length_a   5.26706210
_cell_length_b   4.75674096
_cell_length_c   5.25118916
_cell_angle_alpha   89.84683372
_cell_angle_beta   89.99975623
_cell_angle_gamma   89.99996013
_symmetry_Int_Tables_number   1
_chemical_formula_structural   ErAgH4
_chemical_formula_sum   'Er2 Ag2 H8'
_cell_volume   131.56308583
_cell_formula_units_Z   2
loop_
 _symmetry_equiv_pos_site_id
 _symmetry_equiv_pos_as_xyz
  1  'x, y, z'
loop_
 _atom_site_type_symbol
 _atom_site_label
 _atom_site_symmetry_multiplicity
 _atom_site_fract_x
 _atom_site_fract_y
 _atom_site_fract_z
 _atom_site_occupancy
  Er  Er0  1  0.24943495  0.99999621  0.75000479  1.0
  Er  Er1  1  0.75056511  0.00000371  0.24999517  1.0
  Ag  Ag2  1  0.74836614  0.49999076  0.74999372  1.0
  Ag  Ag3  1  0.25163386  0.50000902  0.25000638  1.0
  H  H4  1  0.93416733  0.22133291  0.93323071  1.0
  H  H5  1  0.43134317  0.21753118  0.06807791  1.0
  H  H6  1  0.43134410  0.78245811  0.43189937  1.0
  H  H7  1  0.93417628  0.77866357  0.56678055  1.0
  H  H8  1  0.06582359  0.22133643  0.43321954  1.0
  H  H9  1  0.56865574  0.21754203  0.56810050  1.0
  H  H10  1  0.56865703  0.78246889  0.93192198  1.0
  H  H11  1  0.06583269  0.77866719  0.06676939  1.0
