# generated using pymatgen
data_ErH2Cl
_symmetry_space_group_name_H-M   'P 1'
_cell_length_a   3.28537814
_cell_length_b   7.90498464
_cell_length_c   8.07267865
_cell_angle_alpha   75.31706590
_cell_angle_beta   89.98075638
_cell_angle_gamma   89.98562914
_symmetry_Int_Tables_number   1
_chemical_formula_structural   ErH2Cl
_chemical_formula_sum   'Er2 H4 Cl2'
_cell_volume   202.80779929
_cell_formula_units_Z   2
loop_
 _symmetry_equiv_pos_site_id
 _symmetry_equiv_pos_as_xyz
  1  'x, y, z'
loop_
 _atom_site_type_symbol
 _atom_site_label
 _atom_site_symmetry_multiplicity
 _atom_site_fract_x
 _atom_site_fract_y
 _atom_site_fract_z
 _atom_site_occupancy
  Er  Er0  1  0.99991825  0.84134596  0.30964789  1.0
  Er  Er1  1  0.00008165  0.15865413  0.69035204  1.0
  H  H2  1  0.49993898  0.99718456  0.18756984  1.0
  H  H3  1  0.50006075  0.00281525  0.81242985  1.0
  H  H4  1  0.49979015  0.83794699  0.48475644  1.0
  H  H5  1  0.50020950  0.16205346  0.51524341  1.0
  Cl  Cl6  1  0.50007906  0.61285562  0.23813965  1.0
  Cl  Cl7  1  0.49992167  0.38714402  0.76186087  1.0
