# generated using pymatgen
data_ErHI4
_symmetry_space_group_name_H-M   'P 1'
_cell_length_a   9.28967882
_cell_length_b   7.07885349
_cell_length_c   7.77023642
_cell_angle_alpha   86.85302473
_cell_angle_beta   89.87862715
_cell_angle_gamma   89.65076506
_symmetry_Int_Tables_number   1
_chemical_formula_structural   ErHI4
_chemical_formula_sum   'Er2 H2 I8'
_cell_volume   510.19204595
_cell_formula_units_Z   2
loop_
 _symmetry_equiv_pos_site_id
 _symmetry_equiv_pos_as_xyz
  1  'x, y, z'
loop_
 _atom_site_type_symbol
 _atom_site_label
 _atom_site_symmetry_multiplicity
 _atom_site_fract_x
 _atom_site_fract_y
 _atom_site_fract_z
 _atom_site_occupancy
  Er  Er0  1  0.11233797  0.00221198  0.74993235  1.0
  Er  Er1  1  0.88765510  0.99780587  0.25034452  1.0
  H  H2  1  0.32897955  0.50390046  0.74722915  1.0
  H  H3  1  0.67100859  0.49687525  0.25245007  1.0
  I  I4  1  0.87853965  0.23169375  0.91509056  1.0
  I  I5  1  0.34328358  0.26118663  0.87539738  1.0
  I  I6  1  0.34727856  0.74197806  0.62223331  1.0
  I  I7  1  0.88258764  0.76716749  0.58706638  1.0
  I  I8  1  0.11776045  0.23232336  0.41285674  1.0
  I  I9  1  0.65308640  0.25815187  0.37787842  1.0
  I  I10  1  0.65636677  0.73889624  0.12467995  1.0
  I  I11  1  0.12111574  0.76780904  0.08484116  1.0
