# generated using pymatgen
data_ErLuSb2
_symmetry_space_group_name_H-M   'P 1'
_cell_length_a   5.31388170
_cell_length_b   5.31388901
_cell_length_c   5.31387488
_cell_angle_alpha   60.00007420
_cell_angle_beta   59.99991444
_cell_angle_gamma   59.99999727
_symmetry_Int_Tables_number   1
_chemical_formula_structural   ErLuSb2
_chemical_formula_sum   'Er1 Lu1 Sb2'
_cell_volume   106.10128437
_cell_formula_units_Z   1
loop_
 _symmetry_equiv_pos_site_id
 _symmetry_equiv_pos_as_xyz
  1  'x, y, z'
loop_
 _atom_site_type_symbol
 _atom_site_label
 _atom_site_symmetry_multiplicity
 _atom_site_fract_x
 _atom_site_fract_y
 _atom_site_fract_z
 _atom_site_occupancy
  Er  Er0  1  0.50000015  0.49999917  0.49999998  1.0
  Lu  Lu1  1  0.00000047  0.00000026  0.99999963  1.0
  Sb  Sb2  1  0.74999968  0.75000005  0.75000038  1.0
  Sb  Sb3  1  0.24999971  0.25000052  0.25000001  1.0
