# generated using pymatgen
data_Eu2AsBr
_symmetry_space_group_name_H-M   'P 1'
_cell_length_a   5.57152845
_cell_length_b   5.17406512
_cell_length_c   5.19698873
_cell_angle_alpha   60.15071345
_cell_angle_beta   62.46388459
_cell_angle_gamma   62.33536547
_symmetry_Int_Tables_number   1
_chemical_formula_structural   Eu2AsBr
_chemical_formula_sum   'Eu2 As1 Br1'
_cell_volume   109.74920823
_cell_formula_units_Z   1
loop_
 _symmetry_equiv_pos_site_id
 _symmetry_equiv_pos_as_xyz
  1  'x, y, z'
loop_
 _atom_site_type_symbol
 _atom_site_label
 _atom_site_symmetry_multiplicity
 _atom_site_fract_x
 _atom_site_fract_y
 _atom_site_fract_z
 _atom_site_occupancy
  Eu  Eu0  1  0.49900439  0.50070613  0.49958581  1.0
  Eu  Eu1  1  0.00105776  0.99927950  0.00038213  1.0
  As  As2  1  0.24996367  0.25001471  0.24999529  1.0
  Br  Br3  1  0.74997319  0.74999866  0.75003577  1.0
