# generated using pymatgen
data_EuCrP2
_symmetry_space_group_name_H-M   'P 1'
_cell_length_a   4.26022929
_cell_length_b   4.26247802
_cell_length_c   4.69219047
_cell_angle_alpha   90.33951423
_cell_angle_beta   89.57255123
_cell_angle_gamma   120.01894610
_symmetry_Int_Tables_number   1
_chemical_formula_structural   EuCrP2
_chemical_formula_sum   'Eu1 Cr1 P2'
_cell_volume   73.77427793
_cell_formula_units_Z   1
loop_
 _symmetry_equiv_pos_site_id
 _symmetry_equiv_pos_as_xyz
  1  'x, y, z'
loop_
 _atom_site_type_symbol
 _atom_site_label
 _atom_site_symmetry_multiplicity
 _atom_site_fract_x
 _atom_site_fract_y
 _atom_site_fract_z
 _atom_site_occupancy
  Eu  Eu0  1  0.99999999  0.99999997  0.50000001  1.0
  Cr  Cr1  1  0.00000001  0.00000001  0.99999999  1.0
  P  P2  1  0.66759757  0.33358537  0.00030900  1.0
  P  P3  1  0.33240243  0.66641465  0.99969100  1.0
