# generated using pymatgen
data_EuCuS2
_symmetry_space_group_name_H-M   'P 1'
_cell_length_a   3.98208263
_cell_length_b   6.26859705
_cell_length_c   7.06794776
_cell_angle_alpha   90.88204179
_cell_angle_beta   89.99733813
_cell_angle_gamma   89.98772697
_symmetry_Int_Tables_number   1
_chemical_formula_structural   EuCuS2
_chemical_formula_sum   'Eu2 Cu2 S4'
_cell_volume   176.40970668
_cell_formula_units_Z   2
loop_
 _symmetry_equiv_pos_site_id
 _symmetry_equiv_pos_as_xyz
  1  'x, y, z'
loop_
 _atom_site_type_symbol
 _atom_site_label
 _atom_site_symmetry_multiplicity
 _atom_site_fract_x
 _atom_site_fract_y
 _atom_site_fract_z
 _atom_site_occupancy
  Eu  Eu0  1  0.00000006  0.00000296  0.00000100  1.0
  Eu  Eu1  1  0.50000059  0.99999494  0.50000402  1.0
  Cu  Cu2  1  0.50031042  0.62650633  0.16518148  1.0
  Cu  Cu3  1  0.49968214  0.37350426  0.83480965  1.0
  S  S4  1  0.49987422  0.25980826  0.15824819  1.0
  S  S5  1  0.99985655  0.25634084  0.68371082  1.0
  S  S6  1  0.00014087  0.74365670  0.31628739  1.0
  S  S7  1  0.50013514  0.74018570  0.84175745  1.0
