# generated using pymatgen
data_EuH4W
_symmetry_space_group_name_H-M   'P 1'
_cell_length_a   4.77468992
_cell_length_b   4.60173450
_cell_length_c   6.24200082
_cell_angle_alpha   90.00047826
_cell_angle_beta   90.00164504
_cell_angle_gamma   90.19240172
_symmetry_Int_Tables_number   1
_chemical_formula_structural   EuH4W
_chemical_formula_sum   'Eu2 H8 W2'
_cell_volume   137.14756566
_cell_formula_units_Z   2
loop_
 _symmetry_equiv_pos_site_id
 _symmetry_equiv_pos_as_xyz
  1  'x, y, z'
loop_
 _atom_site_type_symbol
 _atom_site_label
 _atom_site_symmetry_multiplicity
 _atom_site_fract_x
 _atom_site_fract_y
 _atom_site_fract_z
 _atom_site_occupancy
  Eu  Eu0  1  0.99999708  0.74999508  0.78955407  1.0
  Eu  Eu1  1  0.00000806  0.24999920  0.21045019  1.0
  H  H2  1  0.77505333  0.99997681  0.50105781  1.0
  H  H3  1  0.22497757  0.50003658  0.50105841  1.0
  H  H4  1  0.22498239  0.00002787  0.49894521  1.0
  H  H5  1  0.77505367  0.49997130  0.49893818  1.0
  H  H6  1  0.25909044  0.74857576  0.16852654  1.0
  H  H7  1  0.74094829  0.75143237  0.16851795  1.0
  H  H8  1  0.74092457  0.25142787  0.83147791  1.0
  H  H9  1  0.25906770  0.24857192  0.83147440  1.0
  W  W10  1  0.49994526  0.24999061  0.60282238  1.0
  W  W11  1  0.49995464  0.74999564  0.39717897  1.0
