# generated using pymatgen
data_EuMnTe2
_symmetry_space_group_name_H-M   'P 1'
_cell_length_a   4.32334945
_cell_length_b   4.32334887
_cell_length_c   7.26703373
_cell_angle_alpha   90.00006631
_cell_angle_beta   89.99995074
_cell_angle_gamma   120.00010353
_symmetry_Int_Tables_number   1
_chemical_formula_structural   EuMnTe2
_chemical_formula_sum   'Eu1 Mn1 Te2'
_cell_volume   117.63267606
_cell_formula_units_Z   1
loop_
 _symmetry_equiv_pos_site_id
 _symmetry_equiv_pos_as_xyz
  1  'x, y, z'
loop_
 _atom_site_type_symbol
 _atom_site_label
 _atom_site_symmetry_multiplicity
 _atom_site_fract_x
 _atom_site_fract_y
 _atom_site_fract_z
 _atom_site_occupancy
  Eu  Eu0  1  0.00000000  0.99999999  0.50000000  1.0
  Mn  Mn1  1  0.00000001  0.00000002  0.00000000  1.0
  Te  Te2  1  0.33333333  0.66666667  0.21528994  1.0
  Te  Te3  1  0.66666667  0.33333333  0.78471005  1.0
