# generated using pymatgen
data_EuMnP2
_symmetry_space_group_name_H-M   'P 1'
_cell_length_a   4.71605112
_cell_length_b   4.71605091
_cell_length_c   4.71605077
_cell_angle_alpha   59.99985121
_cell_angle_beta   59.99985199
_cell_angle_gamma   59.99985044
_symmetry_Int_Tables_number   1
_chemical_formula_structural   EuMnP2
_chemical_formula_sum   'Eu1 Mn1 P2'
_cell_volume   74.16841491
_cell_formula_units_Z   1
loop_
 _symmetry_equiv_pos_site_id
 _symmetry_equiv_pos_as_xyz
  1  'x, y, z'
loop_
 _atom_site_type_symbol
 _atom_site_label
 _atom_site_symmetry_multiplicity
 _atom_site_fract_x
 _atom_site_fract_y
 _atom_site_fract_z
 _atom_site_occupancy
  Eu  Eu0  1  0.50000000  0.50000000  0.50000000  1.0
  Mn  Mn1  1  0.00000000  0.00000000  0.00000001  1.0
  P  P2  1  0.25000012  0.25000012  0.25000013  1.0
  P  P3  1  0.74999988  0.74999988  0.74999986  1.0
