# generated using pymatgen
data_EuSb2Au
_symmetry_space_group_name_H-M   'P 1'
_cell_length_a   4.28184178
_cell_length_b   4.28911402
_cell_length_c   7.04281314
_cell_angle_alpha   89.98883482
_cell_angle_beta   90.00000699
_cell_angle_gamma   120.06014271
_symmetry_Int_Tables_number   1
_chemical_formula_structural   EuSb2Au
_chemical_formula_sum   'Eu1 Sb2 Au1'
_cell_volume   111.94674630
_cell_formula_units_Z   1
loop_
 _symmetry_equiv_pos_site_id
 _symmetry_equiv_pos_as_xyz
  1  'x, y, z'
loop_
 _atom_site_type_symbol
 _atom_site_label
 _atom_site_symmetry_multiplicity
 _atom_site_fract_x
 _atom_site_fract_y
 _atom_site_fract_z
 _atom_site_occupancy
  Eu  Eu0  1  0.00000005  0.99999999  0.00000001  1.0
  Sb  Sb1  1  0.33173158  0.66571768  0.30210484  1.0
  Sb  Sb2  1  0.66826840  0.33428229  0.69789515  1.0
  Au  Au3  1  0.99999997  0.00000003  0.50000000  1.0
