# generated using pymatgen
data_FeRhSe2
_symmetry_space_group_name_H-M   'P 1'
_cell_length_a   3.72528368
_cell_length_b   3.72528456
_cell_length_c   5.70653268
_cell_angle_alpha   89.99987884
_cell_angle_beta   90.00017069
_cell_angle_gamma   119.99997717
_symmetry_Int_Tables_number   1
_chemical_formula_structural   FeRhSe2
_chemical_formula_sum   'Fe1 Rh1 Se2'
_cell_volume   68.58384711
_cell_formula_units_Z   1
loop_
 _symmetry_equiv_pos_site_id
 _symmetry_equiv_pos_as_xyz
  1  'x, y, z'
loop_
 _atom_site_type_symbol
 _atom_site_label
 _atom_site_symmetry_multiplicity
 _atom_site_fract_x
 _atom_site_fract_y
 _atom_site_fract_z
 _atom_site_occupancy
  Fe  Fe0  1  0.00000000  0.99999990  0.00000002  1.0
  Rh  Rh1  1  0.99999995  0.99999999  0.50000000  1.0
  Se  Se2  1  0.33333333  0.66666667  0.25525837  1.0
  Se  Se3  1  0.66666667  0.33333333  0.74474162  1.0
