# generated using pymatgen
data_GdErN2
_symmetry_space_group_name_H-M   'P 1'
_cell_length_a   3.41643964
_cell_length_b   3.41645902
_cell_length_c   6.00536562
_cell_angle_alpha   90.00155670
_cell_angle_beta   90.00000538
_cell_angle_gamma   119.99981342
_symmetry_Int_Tables_number   1
_chemical_formula_structural   GdErN2
_chemical_formula_sum   'Gd1 Er1 N2'
_cell_volume   60.70449763
_cell_formula_units_Z   1
loop_
 _symmetry_equiv_pos_site_id
 _symmetry_equiv_pos_as_xyz
  1  'x, y, z'
loop_
 _atom_site_type_symbol
 _atom_site_label
 _atom_site_symmetry_multiplicity
 _atom_site_fract_x
 _atom_site_fract_y
 _atom_site_fract_z
 _atom_site_occupancy
  Gd  Gd0  1  0.99999913  0.99999937  0.50000001  1.0
  Er  Er1  1  0.00000112  0.00000032  0.00000004  1.0
  N  N2  1  0.66666667  0.33333333  0.75604013  1.0
  N  N3  1  0.33333333  0.66666667  0.24395981  1.0
