# generated using pymatgen
data_GdHF4
_symmetry_space_group_name_H-M   'P 1'
_cell_length_a   5.08433822
_cell_length_b   5.61419274
_cell_length_c   5.56021253
_cell_angle_alpha   90.00000316
_cell_angle_beta   89.99999075
_cell_angle_gamma   110.49416726
_symmetry_Int_Tables_number   1
_chemical_formula_structural   GdHF4
_chemical_formula_sum   'Gd2 H2 F8'
_cell_volume   148.66793067
_cell_formula_units_Z   2
loop_
 _symmetry_equiv_pos_site_id
 _symmetry_equiv_pos_as_xyz
  1  'x, y, z'
loop_
 _atom_site_type_symbol
 _atom_site_label
 _atom_site_symmetry_multiplicity
 _atom_site_fract_x
 _atom_site_fract_y
 _atom_site_fract_z
 _atom_site_occupancy
  Gd  Gd0  1  0.50000003  0.25000004  0.71480131  1.0
  Gd  Gd1  1  0.49999999  0.74999998  0.28519881  1.0
  H  H2  1  0.00000005  0.74999999  0.92786380  1.0
  H  H3  1  0.99999995  0.24999998  0.07213625  1.0
  F  F4  1  0.74021610  0.00941082  0.57721886  1.0
  F  F5  1  0.25978393  0.49058920  0.57721892  1.0
  F  F6  1  0.25978381  0.99058903  0.42278104  1.0
  F  F7  1  0.74021626  0.50941102  0.42278099  1.0
  F  F8  1  0.23715116  0.36293819  0.06079456  1.0
  F  F9  1  0.76284873  0.13706177  0.06079455  1.0
  F  F10  1  0.76285006  0.63706244  0.93920544  1.0
  F  F11  1  0.23714993  0.86293753  0.93920547  1.0
