# generated using pymatgen
data_GePbF4
_symmetry_space_group_name_H-M   'P 1'
_cell_length_a   6.19530022
_cell_length_b   6.22867025
_cell_length_c   5.75418008
_cell_angle_alpha   92.56088076
_cell_angle_beta   89.99839514
_cell_angle_gamma   89.99768549
_symmetry_Int_Tables_number   1
_chemical_formula_structural   GePbF4
_chemical_formula_sum   'Ge2 Pb2 F8'
_cell_volume   221.82332071
_cell_formula_units_Z   2
loop_
 _symmetry_equiv_pos_site_id
 _symmetry_equiv_pos_as_xyz
  1  'x, y, z'
loop_
 _atom_site_type_symbol
 _atom_site_label
 _atom_site_symmetry_multiplicity
 _atom_site_fract_x
 _atom_site_fract_y
 _atom_site_fract_z
 _atom_site_occupancy
  Ge  Ge0  1  0.33293990  0.50004372  0.74997153  1.0
  Ge  Ge1  1  0.66706000  0.49995123  0.24997527  1.0
  Pb  Pb2  1  0.80115989  0.99999908  0.75001203  1.0
  Pb  Pb3  1  0.19884023  0.00000037  0.24998828  1.0
  F  F4  1  0.08799621  0.19735013  0.60079993  1.0
  F  F5  1  0.91198463  0.19735828  0.10082277  1.0
  F  F6  1  0.56408113  0.32061996  0.57599792  1.0
  F  F7  1  0.43597532  0.32062094  0.07607667  1.0
  F  F8  1  0.56404758  0.67936625  0.92394823  1.0
  F  F9  1  0.43589633  0.67936724  0.42402696  1.0
  F  F10  1  0.08801187  0.80265742  0.89917876  1.0
  F  F11  1  0.91200692  0.80266538  0.39920166  1.0
