# generated using pymatgen
data_H2RhF
_symmetry_space_group_name_H-M   'P 1'
_cell_length_a   4.84073326
_cell_length_b   4.84061541
_cell_length_c   4.49147370
_cell_angle_alpha   65.88762218
_cell_angle_beta   65.88968069
_cell_angle_gamma   51.62599638
_symmetry_Int_Tables_number   1
_chemical_formula_structural   H2RhF
_chemical_formula_sum   'H4 Rh2 F2'
_cell_volume   73.52473471
_cell_formula_units_Z   2
loop_
 _symmetry_equiv_pos_site_id
 _symmetry_equiv_pos_as_xyz
  1  'x, y, z'
loop_
 _atom_site_type_symbol
 _atom_site_label
 _atom_site_symmetry_multiplicity
 _atom_site_fract_x
 _atom_site_fract_y
 _atom_site_fract_z
 _atom_site_occupancy
  H  H0  1  0.29644059  0.09051033  0.20886692  1.0
  H  H1  1  0.90948148  0.70357091  0.29115611  1.0
  H  H2  1  0.09051853  0.29642910  0.70884386  1.0
  H  H3  1  0.70355938  0.90948971  0.79113307  1.0
  Rh  Rh4  1  0.50000001  0.99999997  0.50000002  1.0
  Rh  Rh5  1  0.00000001  0.49999999  0.00000001  1.0
  F  F6  1  0.37182936  0.62816203  0.75000578  1.0
  F  F7  1  0.62817064  0.37183796  0.24999423  1.0
