# generated using pymatgen
data_HfZrS4
_symmetry_space_group_name_H-M   'P 1'
_cell_length_a   6.74954533
_cell_length_b   6.11660828
_cell_length_c   6.33865287
_cell_angle_alpha   81.04163401
_cell_angle_beta   89.99999878
_cell_angle_gamma   90.00000105
_symmetry_Int_Tables_number   1
_chemical_formula_structural   HfZrS4
_chemical_formula_sum   'Hf2 Zr2 S8'
_cell_volume   258.49488150
_cell_formula_units_Z   2
loop_
 _symmetry_equiv_pos_site_id
 _symmetry_equiv_pos_as_xyz
  1  'x, y, z'
loop_
 _atom_site_type_symbol
 _atom_site_label
 _atom_site_symmetry_multiplicity
 _atom_site_fract_x
 _atom_site_fract_y
 _atom_site_fract_z
 _atom_site_occupancy
  Hf  Hf0  1  0.84036176  0.00000001  0.74999999  1.0
  Hf  Hf1  1  0.15963817  0.99999998  0.25000001  1.0
  Zr  Zr2  1  0.70859387  0.50000001  0.24999998  1.0
  Zr  Zr3  1  0.29140596  0.49999999  0.75000000  1.0
  S  S4  1  0.58153714  0.26986321  0.59257046  1.0
  S  S5  1  0.58153713  0.73013680  0.90742953  1.0
  S  S6  1  0.41846287  0.73013683  0.40742957  1.0
  S  S7  1  0.41846285  0.26986320  0.09257046  1.0
  S  S8  1  0.91009757  0.24775353  0.02486088  1.0
  S  S9  1  0.91009757  0.75224644  0.47513914  1.0
  S  S10  1  0.08990255  0.75224664  0.97513901  1.0
  S  S11  1  0.08990257  0.24775335  0.52486098  1.0
