# generated using pymatgen
data_HgPdS2
_symmetry_space_group_name_H-M   'P 1'
_cell_length_a   3.63599920
_cell_length_b   7.25116295
_cell_length_c   6.98154260
_cell_angle_alpha   110.55418404
_cell_angle_beta   90.00006009
_cell_angle_gamma   90.00002106
_symmetry_Int_Tables_number   1
_chemical_formula_structural   HgPdS2
_chemical_formula_sum   'Hg2 Pd2 S4'
_cell_volume   172.35214118
_cell_formula_units_Z   2
loop_
 _symmetry_equiv_pos_site_id
 _symmetry_equiv_pos_as_xyz
  1  'x, y, z'
loop_
 _atom_site_type_symbol
 _atom_site_label
 _atom_site_symmetry_multiplicity
 _atom_site_fract_x
 _atom_site_fract_y
 _atom_site_fract_z
 _atom_site_occupancy
  Hg  Hg0  1  0.99999999  0.00000001  0.49999997  1.0
  Hg  Hg1  1  0.00000001  0.50000000  0.50000001  1.0
  Pd  Pd2  1  0.50000004  0.50000000  0.00000000  1.0
  Pd  Pd3  1  0.99999998  0.00000000  0.00000001  1.0
  S  S4  1  0.50000003  0.22067355  0.12542186  1.0
  S  S5  1  0.99999991  0.34442353  0.75766106  1.0
  S  S6  1  0.00000007  0.65557646  0.24233893  1.0
  S  S7  1  0.49999997  0.77932645  0.87457816  1.0
