# generated using pymatgen
data_HoCoP2
_symmetry_space_group_name_H-M   'P 1'
_cell_length_a   3.65222927
_cell_length_b   3.65223212
_cell_length_c   5.77045055
_cell_angle_alpha   89.99999816
_cell_angle_beta   90.00000476
_cell_angle_gamma   119.99996824
_symmetry_Int_Tables_number   1
_chemical_formula_structural   HoCoP2
_chemical_formula_sum   'Ho1 Co1 P2'
_cell_volume   66.65870906
_cell_formula_units_Z   1
loop_
 _symmetry_equiv_pos_site_id
 _symmetry_equiv_pos_as_xyz
  1  'x, y, z'
loop_
 _atom_site_type_symbol
 _atom_site_label
 _atom_site_symmetry_multiplicity
 _atom_site_fract_x
 _atom_site_fract_y
 _atom_site_fract_z
 _atom_site_occupancy
  Ho  Ho0  1  0.00000006  0.00000003  0.99999999  1.0
  Co  Co1  1  0.99999998  0.00000000  0.50000001  1.0
  P  P2  1  0.66666667  0.33333333  0.32974263  1.0
  P  P3  1  0.33333333  0.66666667  0.67025738  1.0
