# generated using pymatgen
data_HoHCl4
_symmetry_space_group_name_H-M   'P 1'
_cell_length_a   8.66257011
_cell_length_b   6.84617022
_cell_length_c   8.41252013
_cell_angle_alpha   89.07258656
_cell_angle_beta   92.01348288
_cell_angle_gamma   134.57032206
_symmetry_Int_Tables_number   1
_chemical_formula_structural   HoHCl4
_chemical_formula_sum   'Ho2 H2 Cl8'
_cell_volume   355.17239667
_cell_formula_units_Z   2
loop_
 _symmetry_equiv_pos_site_id
 _symmetry_equiv_pos_as_xyz
  1  'x, y, z'
loop_
 _atom_site_type_symbol
 _atom_site_label
 _atom_site_symmetry_multiplicity
 _atom_site_fract_x
 _atom_site_fract_y
 _atom_site_fract_z
 _atom_site_occupancy
  Ho  Ho0  1  0.99143224  0.73741929  0.62036751  1.0
  Ho  Ho1  1  0.00845872  0.26105435  0.37937949  1.0
  H  H2  1  0.48403999  0.24138507  0.83315638  1.0
  H  H3  1  0.51240451  0.75665637  0.16726026  1.0
  Cl  Cl4  1  0.77352155  0.87248525  0.59832584  1.0
  Cl  Cl5  1  0.23360451  0.63635543  0.60792750  1.0
  Cl  Cl6  1  0.22880035  0.12988665  0.40264310  1.0
  Cl  Cl7  1  0.76835424  0.36551501  0.39060744  1.0
  Cl  Cl8  1  0.26002622  0.61944203  0.16014709  1.0
  Cl  Cl9  1  0.73365471  0.87436786  0.15248482  1.0
  Cl  Cl10  1  0.74037758  0.38079815  0.83852467  1.0
  Cl  Cl11  1  0.26532538  0.12463455  0.84917590  1.0
