# generated using pymatgen
data_InAgBr4
_symmetry_space_group_name_H-M   'P 1'
_cell_length_a   6.95738278
_cell_length_b   6.96886082
_cell_length_c   8.50693413
_cell_angle_alpha   89.99699983
_cell_angle_beta   89.99873454
_cell_angle_gamma   75.26399795
_symmetry_Int_Tables_number   1
_chemical_formula_structural   InAgBr4
_chemical_formula_sum   'In2 Ag2 Br8'
_cell_volume   398.89242075
_cell_formula_units_Z   2
loop_
 _symmetry_equiv_pos_site_id
 _symmetry_equiv_pos_as_xyz
  1  'x, y, z'
loop_
 _atom_site_type_symbol
 _atom_site_label
 _atom_site_symmetry_multiplicity
 _atom_site_fract_x
 _atom_site_fract_y
 _atom_site_fract_z
 _atom_site_occupancy
  In  In0  1  0.49998656  0.74999695  0.63112164  1.0
  In  In1  1  0.50001318  0.25000308  0.36887833  1.0
  Ag  Ag2  1  0.00003015  0.75002805  0.21887177  1.0
  Ag  Ag3  1  0.99996998  0.24997203  0.78112803  1.0
  Br  Br4  1  0.27190433  0.47729548  0.59998114  1.0
  Br  Br5  1  0.72809760  0.02268237  0.59999195  1.0
  Br  Br6  1  0.72809568  0.52270417  0.40001929  1.0
  Br  Br7  1  0.27190213  0.97731752  0.40000791  1.0
  Br  Br8  1  0.26074124  0.43466391  0.13968040  1.0
  Br  Br9  1  0.73926816  0.06536189  0.13966978  1.0
  Br  Br10  1  0.73925900  0.56533627  0.86031940  1.0
  Br  Br11  1  0.26073199  0.93463828  0.86033035  1.0
