# generated using pymatgen
data_InClF2
_symmetry_space_group_name_H-M   'P 1'
_cell_length_a   3.16839608
_cell_length_b   7.36452700
_cell_length_c   7.83528261
_cell_angle_alpha   78.44272660
_cell_angle_beta   89.99983717
_cell_angle_gamma   89.99996140
_symmetry_Int_Tables_number   1
_chemical_formula_structural   InClF2
_chemical_formula_sum   'In2 Cl2 F4'
_cell_volume   179.11961564
_cell_formula_units_Z   2
loop_
 _symmetry_equiv_pos_site_id
 _symmetry_equiv_pos_as_xyz
  1  'x, y, z'
loop_
 _atom_site_type_symbol
 _atom_site_label
 _atom_site_symmetry_multiplicity
 _atom_site_fract_x
 _atom_site_fract_y
 _atom_site_fract_z
 _atom_site_occupancy
  In  In0  1  0.99999952  0.82315937  0.29416554  1.0
  In  In1  1  0.00000049  0.17684063  0.70583446  1.0
  Cl  Cl2  1  0.50000038  0.59894327  0.19488515  1.0
  Cl  Cl3  1  0.49999959  0.40105673  0.80511485  1.0
  F  F4  1  0.50000018  0.00975044  0.18277984  1.0
  F  F5  1  0.49999987  0.99024956  0.81722016  1.0
  F  F6  1  0.49999812  0.80166177  0.48725483  1.0
  F  F7  1  0.50000186  0.19833824  0.51274517  1.0
