# generated using pymatgen
data_InHBr4
_symmetry_space_group_name_H-M   'P 1'
_cell_length_a   8.73696913
_cell_length_b   6.88005083
_cell_length_c   8.82927935
_cell_angle_alpha   89.04403801
_cell_angle_beta   86.76729703
_cell_angle_gamma   47.98079528
_symmetry_Int_Tables_number   1
_chemical_formula_structural   InHBr4
_chemical_formula_sum   'In2 H2 Br8'
_cell_volume   393.50770796
_cell_formula_units_Z   2
loop_
 _symmetry_equiv_pos_site_id
 _symmetry_equiv_pos_as_xyz
  1  'x, y, z'
loop_
 _atom_site_type_symbol
 _atom_site_label
 _atom_site_symmetry_multiplicity
 _atom_site_fract_x
 _atom_site_fract_y
 _atom_site_fract_z
 _atom_site_occupancy
  In  In0  1  0.51712757  0.72835965  0.61209218  1.0
  In  In1  1  0.48293168  0.27147453  0.38771252  1.0
  H  H2  1  0.97090638  0.75877961  0.18173895  1.0
  H  H3  1  0.02916919  0.24136560  0.81848641  1.0
  Br  Br4  1  0.26128425  0.63667082  0.62130710  1.0
  Br  Br5  1  0.73111009  0.88142056  0.59162318  1.0
  Br  Br6  1  0.73864446  0.36336521  0.37848274  1.0
  Br  Br7  1  0.26888776  0.11851096  0.40840179  1.0
  Br  Br8  1  0.25723878  0.60671976  0.17402824  1.0
  Br  Br9  1  0.74862375  0.88056476  0.14891282  1.0
  Br  Br10  1  0.74259139  0.39335560  0.82595928  1.0
  Br  Br11  1  0.25148470  0.11941295  0.85125478  1.0
