# generated using pymatgen
data_InHF2
_symmetry_space_group_name_H-M   'P 1'
_cell_length_a   5.88458172
_cell_length_b   5.88458089
_cell_length_c   7.83175770
_cell_angle_alpha   91.33848396
_cell_angle_beta   91.33847680
_cell_angle_gamma   109.31003183
_symmetry_Int_Tables_number   1
_chemical_formula_structural   InHF2
_chemical_formula_sum   'In4 H4 F8'
_cell_volume   255.73479737
_cell_formula_units_Z   4
loop_
 _symmetry_equiv_pos_site_id
 _symmetry_equiv_pos_as_xyz
  1  'x, y, z'
loop_
 _atom_site_type_symbol
 _atom_site_label
 _atom_site_symmetry_multiplicity
 _atom_site_fract_x
 _atom_site_fract_y
 _atom_site_fract_z
 _atom_site_occupancy
  In  In0  1  0.87453673  0.69896599  0.59626812  1.0
  In  In1  1  0.30103377  0.12546342  0.90373181  1.0
  In  In2  1  0.12546328  0.30103401  0.40373188  1.0
  In  In3  1  0.69896623  0.87453658  0.09626820  1.0
  H  H4  1  0.58131915  0.59705557  0.64543402  1.0
  H  H5  1  0.40294430  0.41868083  0.85456604  1.0
  H  H6  1  0.41868085  0.40294444  0.35456598  1.0
  H  H7  1  0.59705570  0.58131916  0.14543396  1.0
  F  F8  1  0.18511213  0.00594492  0.60557124  1.0
  F  F9  1  0.99405515  0.81488798  0.89442877  1.0
  F  F10  1  0.81488787  0.99405507  0.39442876  1.0
  F  F11  1  0.00594485  0.18511202  0.10557122  1.0
  F  F12  1  0.96052521  0.57275066  0.35200933  1.0
  F  F13  1  0.42724931  0.03947477  0.14799080  1.0
  F  F14  1  0.03947479  0.42724933  0.64799067  1.0
  F  F15  1  0.57275068  0.96052523  0.85200921  1.0
