# generated using pymatgen
data_InTe4W
_symmetry_space_group_name_H-M   'P 1'
_cell_length_a   6.31821430
_cell_length_b   7.03409487
_cell_length_c   8.54215477
_cell_angle_alpha   90.00000012
_cell_angle_beta   90.00000034
_cell_angle_gamma   91.30283458
_symmetry_Int_Tables_number   1
_chemical_formula_structural   InTe4W
_chemical_formula_sum   'In2 Te8 W2'
_cell_volume   379.54014885
_cell_formula_units_Z   2
loop_
 _symmetry_equiv_pos_site_id
 _symmetry_equiv_pos_as_xyz
  1  'x, y, z'
loop_
 _atom_site_type_symbol
 _atom_site_label
 _atom_site_symmetry_multiplicity
 _atom_site_fract_x
 _atom_site_fract_y
 _atom_site_fract_z
 _atom_site_occupancy
  In  In0  1  0.00000000  0.74999999  0.81719973  1.0
  In  In1  1  0.00000001  0.25000001  0.18280002  1.0
  Te  Te2  1  0.75522596  0.38674299  0.87461422  1.0
  Te  Te3  1  0.24477309  0.61325619  0.12538434  1.0
  Te  Te4  1  0.24477401  0.11325700  0.87461421  1.0
  Te  Te5  1  0.75522693  0.88674383  0.12538435  1.0
  Te  Te6  1  0.72980195  0.94300384  0.57841956  1.0
  Te  Te7  1  0.27019793  0.05699837  0.42158204  1.0
  Te  Te8  1  0.27019804  0.55699616  0.57841956  1.0
  Te  Te9  1  0.72980207  0.44300163  0.42158204  1.0
  W  W10  1  0.50000000  0.75000000  0.34059967  1.0
  W  W11  1  0.50000000  0.25000000  0.65940026  1.0
