# generated using pymatgen
data_K2HF
_symmetry_space_group_name_H-M   'P 1'
_cell_length_a   5.21178734
_cell_length_b   5.21179552
_cell_length_c   7.18229969
_cell_angle_alpha   106.11563157
_cell_angle_beta   106.11564080
_cell_angle_gamma   91.69619397
_symmetry_Int_Tables_number   1
_chemical_formula_structural   K2HF
_chemical_formula_sum   'K4 H2 F2'
_cell_volume   178.85345521
_cell_formula_units_Z   2
loop_
 _symmetry_equiv_pos_site_id
 _symmetry_equiv_pos_as_xyz
  1  'x, y, z'
loop_
 _atom_site_type_symbol
 _atom_site_label
 _atom_site_symmetry_multiplicity
 _atom_site_fract_x
 _atom_site_fract_y
 _atom_site_fract_z
 _atom_site_occupancy
  K  K0  1  0.64547275  0.89779360  0.83074161  1.0
  K  K1  1  0.35452727  0.10220637  0.16925834  1.0
  K  K2  1  0.10220514  0.35452705  0.66925833  1.0
  K  K3  1  0.89779491  0.64547301  0.33074168  1.0
  H  H4  1  0.49999990  0.50000007  0.00000008  1.0
  H  H5  1  0.50000001  0.49999995  0.50000000  1.0
  F  F6  1  0.89714729  0.10285271  0.25000012  1.0
  F  F7  1  0.10285273  0.89714725  0.74999983  1.0
