# generated using pymatgen
data_K2RbAs
_symmetry_space_group_name_H-M   'P 1'
_cell_length_a   5.87252735
_cell_length_b   5.87251919
_cell_length_c   5.87253001
_cell_angle_alpha   60.00003462
_cell_angle_beta   60.00001424
_cell_angle_gamma   59.99992432
_symmetry_Int_Tables_number   1
_chemical_formula_structural   K2RbAs
_chemical_formula_sum   'K2 Rb1 As1'
_cell_volume   143.20548473
_cell_formula_units_Z   1
loop_
 _symmetry_equiv_pos_site_id
 _symmetry_equiv_pos_as_xyz
  1  'x, y, z'
loop_
 _atom_site_type_symbol
 _atom_site_label
 _atom_site_symmetry_multiplicity
 _atom_site_fract_x
 _atom_site_fract_y
 _atom_site_fract_z
 _atom_site_occupancy
  K  K0  1  0.50000005  0.49999986  0.50000069  1.0
  K  K1  1  0.99999996  0.00000004  0.99999944  1.0
  Rb  Rb2  1  0.75000010  0.75000013  0.74999989  1.0
  As  As3  1  0.24999889  0.24999897  0.24999897  1.0
