# generated using pymatgen
data_KBi5S8
_symmetry_space_group_name_H-M   'P 1'
_cell_length_a   10.74911145
_cell_length_b   10.74911057
_cell_length_c   9.92159317
_cell_angle_alpha   75.70255217
_cell_angle_beta   75.70254687
_cell_angle_gamma   21.86577458
_symmetry_Int_Tables_number   1
_chemical_formula_structural   KBi5S8
_chemical_formula_sum   'K1 Bi5 S8'
_cell_volume   413.22263533
_cell_formula_units_Z   1
loop_
 _symmetry_equiv_pos_site_id
 _symmetry_equiv_pos_as_xyz
  1  'x, y, z'
loop_
 _atom_site_type_symbol
 _atom_site_label
 _atom_site_symmetry_multiplicity
 _atom_site_fract_x
 _atom_site_fract_y
 _atom_site_fract_z
 _atom_site_occupancy
  K  K0  1  0.49999950  0.50000056  0.50000028  1.0
  Bi  Bi1  1  0.00000002  0.00000000  0.00000001  1.0
  Bi  Bi2  1  0.34649425  0.34649382  0.94729090  1.0
  Bi  Bi3  1  0.65350583  0.65350611  0.05270908  1.0
  Bi  Bi4  1  0.29609818  0.29609798  0.33953903  1.0
  Bi  Bi5  1  0.70390188  0.70390193  0.66046093  1.0
  S  S6  1  0.57847884  0.57847847  0.85171623  1.0
  S  S7  1  0.42152144  0.42152117  0.14828371  1.0
  S  S8  1  0.07630325  0.07630385  0.20180213  1.0
  S  S9  1  0.92369681  0.92369616  0.79819787  1.0
  S  S10  1  0.16759719  0.16759691  0.50750168  1.0
  S  S11  1  0.83240282  0.83240306  0.49249824  1.0
  S  S12  1  0.22750820  0.22750874  0.85741253  1.0
  S  S13  1  0.77249181  0.77249122  0.14258738  1.0
