# generated using pymatgen
data_KBiSe2
_symmetry_space_group_name_H-M   'P 1'
_cell_length_a   6.63780134
_cell_length_b   6.63780281
_cell_length_c   8.22819124
_cell_angle_alpha   115.42231284
_cell_angle_beta   115.42240081
_cell_angle_gamma   93.55581907
_symmetry_Int_Tables_number   1
_chemical_formula_structural   KBiSe2
_chemical_formula_sum   'K2 Bi2 Se4'
_cell_volume   281.92237598
_cell_formula_units_Z   2
loop_
 _symmetry_equiv_pos_site_id
 _symmetry_equiv_pos_as_xyz
  1  'x, y, z'
loop_
 _atom_site_type_symbol
 _atom_site_label
 _atom_site_symmetry_multiplicity
 _atom_site_fract_x
 _atom_site_fract_y
 _atom_site_fract_z
 _atom_site_occupancy
  K  K0  1  0.38734948  0.61265016  0.74999978  1.0
  K  K1  1  0.61265055  0.38734983  0.24999997  1.0
  Bi  Bi2  1  0.17006984  0.82992998  0.25000010  1.0
  Bi  Bi3  1  0.82993014  0.17006990  0.74999997  1.0
  Se  Se4  1  0.09474749  0.40339965  0.21615061  1.0
  Se  Se5  1  0.59660003  0.90525282  0.28384911  1.0
  Se  Se6  1  0.40339988  0.09474729  0.71615096  1.0
  Se  Se7  1  0.90525260  0.59660036  0.78384950  1.0
