# generated using pymatgen
data_KCuCl2
_symmetry_space_group_name_H-M   'P 1'
_cell_length_a   6.02867026
_cell_length_b   6.02854517
_cell_length_c   7.63228057
_cell_angle_alpha   93.50033876
_cell_angle_beta   93.50162981
_cell_angle_gamma   109.15419529
_symmetry_Int_Tables_number   1
_chemical_formula_structural   KCuCl2
_chemical_formula_sum   'K2 Cu2 Cl4'
_cell_volume   260.57359391
_cell_formula_units_Z   2
loop_
 _symmetry_equiv_pos_site_id
 _symmetry_equiv_pos_as_xyz
  1  'x, y, z'
loop_
 _atom_site_type_symbol
 _atom_site_label
 _atom_site_symmetry_multiplicity
 _atom_site_fract_x
 _atom_site_fract_y
 _atom_site_fract_z
 _atom_site_occupancy
  K  K0  1  0.83898347  0.16101770  0.24999860  1.0
  K  K1  1  0.16101653  0.83898230  0.75000140  1.0
  Cu  Cu2  1  0.50000000  0.50000000  0.00000000  1.0
  Cu  Cu3  1  0.50000000  0.50000000  0.50000000  1.0
  Cl  Cl4  1  0.67348147  0.82049590  0.89238662  1.0
  Cl  Cl5  1  0.32651853  0.17950410  0.10761337  1.0
  Cl  Cl6  1  0.17950660  0.32651983  0.60761227  1.0
  Cl  Cl7  1  0.82049340  0.67348017  0.39238773  1.0
