# generated using pymatgen
data_KEr5Te8
_symmetry_space_group_name_H-M   'P 1'
_cell_length_a   11.48097444
_cell_length_b   11.48097391
_cell_length_c   10.65534822
_cell_angle_alpha   75.77649301
_cell_angle_beta   75.77649030
_cell_angle_gamma   21.91877557
_symmetry_Int_Tables_number   1
_chemical_formula_structural   KEr5Te8
_chemical_formula_sum   'K1 Er5 Te8'
_cell_volume   507.60746189
_cell_formula_units_Z   1
loop_
 _symmetry_equiv_pos_site_id
 _symmetry_equiv_pos_as_xyz
  1  'x, y, z'
loop_
 _atom_site_type_symbol
 _atom_site_label
 _atom_site_symmetry_multiplicity
 _atom_site_fract_x
 _atom_site_fract_y
 _atom_site_fract_z
 _atom_site_occupancy
  K  K0  1  0.49999968  0.49999996  0.49999986  1.0
  Er  Er1  1  0.00000005  0.99999999  0.00000003  1.0
  Er  Er2  1  0.34579926  0.34579929  0.96458648  1.0
  Er  Er3  1  0.65420071  0.65420078  0.03541354  1.0
  Er  Er4  1  0.29517971  0.29517973  0.34441287  1.0
  Er  Er5  1  0.70482035  0.70482026  0.65558711  1.0
  Te  Te6  1  0.57614113  0.57614102  0.83835666  1.0
  Te  Te7  1  0.42385893  0.42385897  0.16164336  1.0
  Te  Te8  1  0.08038045  0.08038061  0.19591492  1.0
  Te  Te9  1  0.91961953  0.91961947  0.80408513  1.0
  Te  Te10  1  0.16461660  0.16461626  0.50170679  1.0
  Te  Te11  1  0.83538354  0.83538368  0.49829322  1.0
  Te  Te12  1  0.23380368  0.23380357  0.84851410  1.0
  Te  Te13  1  0.76619638  0.76619642  0.15148592  1.0
