# generated using pymatgen
data_KIn5S8
_symmetry_space_group_name_H-M   'P 1'
_cell_length_a   9.83636796
_cell_length_b   9.83636795
_cell_length_c   9.42338718
_cell_angle_alpha   77.36074164
_cell_angle_beta   77.36074177
_cell_angle_gamma   22.93345213
_symmetry_Int_Tables_number   1
_chemical_formula_structural   KIn5S8
_chemical_formula_sum   'K1 In5 S8'
_cell_volume   346.30653796
_cell_formula_units_Z   1
loop_
 _symmetry_equiv_pos_site_id
 _symmetry_equiv_pos_as_xyz
  1  'x, y, z'
loop_
 _atom_site_type_symbol
 _atom_site_label
 _atom_site_symmetry_multiplicity
 _atom_site_fract_x
 _atom_site_fract_y
 _atom_site_fract_z
 _atom_site_occupancy
  K  K0  1  0.49999998  0.49999999  0.49999999  1.0
  In  In1  1  0.00000000  0.00000000  0.00000000  1.0
  In  In2  1  0.35672663  0.35672663  0.90315218  1.0
  In  In3  1  0.64327337  0.64327337  0.09684783  1.0
  In  In4  1  0.28472511  0.28472512  0.33788881  1.0
  In  In5  1  0.71527489  0.71527489  0.66211119  1.0
  S  S6  1  0.58654257  0.58654257  0.88009431  1.0
  S  S7  1  0.41345744  0.41345743  0.11990569  1.0
  S  S8  1  0.06713181  0.06713181  0.21925713  1.0
  S  S9  1  0.93286819  0.93286819  0.78074288  1.0
  S  S10  1  0.16463569  0.16463569  0.52878364  1.0
  S  S11  1  0.83536431  0.83536432  0.47121636  1.0
  S  S12  1  0.23921873  0.23921873  0.84449234  1.0
  S  S13  1  0.76078127  0.76078127  0.15550766  1.0
