# generated using pymatgen
data_KNaBr2
_symmetry_space_group_name_H-M   'P 1'
_cell_length_a   5.52483404
_cell_length_b   5.52483324
_cell_length_c   5.52483373
_cell_angle_alpha   59.99256908
_cell_angle_beta   59.99256327
_cell_angle_gamma   59.99257198
_symmetry_Int_Tables_number   1
_chemical_formula_structural   KNaBr2
_chemical_formula_sum   'K1 Na1 Br2'
_cell_volume   119.22557823
_cell_formula_units_Z   1
loop_
 _symmetry_equiv_pos_site_id
 _symmetry_equiv_pos_as_xyz
  1  'x, y, z'
loop_
 _atom_site_type_symbol
 _atom_site_label
 _atom_site_symmetry_multiplicity
 _atom_site_fract_x
 _atom_site_fract_y
 _atom_site_fract_z
 _atom_site_occupancy
  K  K0  1  0.50000001  0.49999999  0.50000004  1.0
  Na  Na1  1  0.00000000  0.00000000  0.99999999  1.0
  Br  Br2  1  0.74999929  0.74999925  0.74999923  1.0
  Br  Br3  1  0.25000070  0.25000076  0.25000074  1.0
