# generated using pymatgen
data_KSmI4
_symmetry_space_group_name_H-M   'P 1'
_cell_length_a   8.84295026
_cell_length_b   7.61632627
_cell_length_c   7.87453291
_cell_angle_alpha   89.99973633
_cell_angle_beta   90.00393895
_cell_angle_gamma   96.39541724
_symmetry_Int_Tables_number   1
_chemical_formula_structural   KSmI4
_chemical_formula_sum   'K2 Sm2 I8'
_cell_volume   527.05555061
_cell_formula_units_Z   2
loop_
 _symmetry_equiv_pos_site_id
 _symmetry_equiv_pos_as_xyz
  1  'x, y, z'
loop_
 _atom_site_type_symbol
 _atom_site_label
 _atom_site_symmetry_multiplicity
 _atom_site_fract_x
 _atom_site_fract_y
 _atom_site_fract_z
 _atom_site_occupancy
  K  K0  1  0.50000820  0.25001144  0.68429382  1.0
  K  K1  1  0.49999180  0.74998856  0.31570662  1.0
  Sm  Sm2  1  0.00001595  0.75000511  0.76112832  1.0
  Sm  Sm3  1  0.99998405  0.24999489  0.23887146  1.0
  I  I4  1  0.79448593  0.00589031  0.56902525  1.0
  I  I5  1  0.20550294  0.49410279  0.56903525  1.0
  I  I6  1  0.20551425  0.99410972  0.43097468  1.0
  I  I7  1  0.79449689  0.50589718  0.43096468  1.0
  I  I8  1  0.19864325  0.57489828  0.06841455  1.0
  I  I9  1  0.80135149  0.92509502  0.06841342  1.0
  I  I10  1  0.80135691  0.42510180  0.93158541  1.0
  I  I11  1  0.19864836  0.07490490  0.93158655  1.0
