# generated using pymatgen
data_KSmS2
_symmetry_space_group_name_H-M   'P 1'
_cell_length_a   5.61100556
_cell_length_b   5.61094680
_cell_length_c   7.93449450
_cell_angle_alpha   107.58560514
_cell_angle_beta   107.58556246
_cell_angle_gamma   89.43717577
_symmetry_Int_Tables_number   1
_chemical_formula_structural   KSmS2
_chemical_formula_sum   'K2 Sm2 S4'
_cell_volume   226.08564207
_cell_formula_units_Z   2
loop_
 _symmetry_equiv_pos_site_id
 _symmetry_equiv_pos_as_xyz
  1  'x, y, z'
loop_
 _atom_site_type_symbol
 _atom_site_label
 _atom_site_symmetry_multiplicity
 _atom_site_fract_x
 _atom_site_fract_y
 _atom_site_fract_z
 _atom_site_occupancy
  K  K0  1  0.50000000  0.49999999  0.00000000  1.0
  K  K1  1  0.49999999  0.50000001  0.49999999  1.0
  Sm  Sm2  1  0.90364388  0.09635573  0.24999974  1.0
  Sm  Sm3  1  0.09635613  0.90364428  0.75000027  1.0
  S  S4  1  0.66926920  0.93956289  0.85282603  1.0
  S  S5  1  0.33073081  0.06043709  0.14717397  1.0
  S  S6  1  0.06043661  0.33073116  0.64717361  1.0
  S  S7  1  0.93956339  0.66926884  0.35282639  1.0
