# generated using pymatgen
data_KTiTe2
_symmetry_space_group_name_H-M   'P 1'
_cell_length_a   7.42037705
_cell_length_b   7.42084064
_cell_length_c   5.97568592
_cell_angle_alpha   90.01080145
_cell_angle_beta   89.96256386
_cell_angle_gamma   112.20427771
_symmetry_Int_Tables_number   1
_chemical_formula_structural   KTiTe2
_chemical_formula_sum   'K2 Ti2 Te4'
_cell_volume   304.65183717
_cell_formula_units_Z   2
loop_
 _symmetry_equiv_pos_site_id
 _symmetry_equiv_pos_as_xyz
  1  'x, y, z'
loop_
 _atom_site_type_symbol
 _atom_site_label
 _atom_site_symmetry_multiplicity
 _atom_site_fract_x
 _atom_site_fract_y
 _atom_site_fract_z
 _atom_site_occupancy
  K  K0  1  0.85242466  0.14763795  0.24999899  1.0
  K  K1  1  0.14757503  0.85236158  0.75000134  1.0
  Ti  Ti2  1  0.49999829  0.50000006  0.99999662  1.0
  Ti  Ti3  1  0.49999849  0.50000045  0.50000314  1.0
  Te  Te4  1  0.63619892  0.83306926  0.74914748  1.0
  Te  Te5  1  0.36380006  0.16692938  0.25085229  1.0
  Te  Te6  1  0.16697258  0.36376967  0.75068469  1.0
  Te  Te7  1  0.83303196  0.63623166  0.24931546  1.0
