# generated using pymatgen
data_KTlCl2
_symmetry_space_group_name_H-M   'P 1'
_cell_length_a   4.08551002
_cell_length_b   8.27395777
_cell_length_c   8.14398883
_cell_angle_alpha   88.46747823
_cell_angle_beta   89.99200658
_cell_angle_gamma   89.99494140
_symmetry_Int_Tables_number   1
_chemical_formula_structural   KTlCl2
_chemical_formula_sum   'K2 Tl2 Cl4'
_cell_volume   275.19552721
_cell_formula_units_Z   2
loop_
 _symmetry_equiv_pos_site_id
 _symmetry_equiv_pos_as_xyz
  1  'x, y, z'
loop_
 _atom_site_type_symbol
 _atom_site_label
 _atom_site_symmetry_multiplicity
 _atom_site_fract_x
 _atom_site_fract_y
 _atom_site_fract_z
 _atom_site_occupancy
  K  K0  1  0.00000342  0.99921354  0.24827880  1.0
  K  K1  1  0.99999689  0.00078649  0.75172107  1.0
  Tl  Tl2  1  0.50000210  0.50063398  0.25022228  1.0
  Tl  Tl3  1  0.49999616  0.49936603  0.74977775  1.0
  Cl  Cl4  1  0.50002038  0.21717965  0.00609152  1.0
  Cl  Cl5  1  0.49998032  0.78282039  0.99390852  1.0
  Cl  Cl6  1  0.49999776  0.78102378  0.49193143  1.0
  Cl  Cl7  1  0.50000297  0.21897613  0.50806862  1.0
