# generated using pymatgen
data_KTlO2
_symmetry_space_group_name_H-M   'P 1'
_cell_length_a   6.97640063
_cell_length_b   6.97640366
_cell_length_c   13.20091835
_cell_angle_alpha   97.70906174
_cell_angle_beta   97.70905860
_cell_angle_gamma   90.00406493
_symmetry_Int_Tables_number   1
_chemical_formula_structural   KTlO2
_chemical_formula_sum   'K8 Tl8 O16'
_cell_volume   630.82320547
_cell_formula_units_Z   8
loop_
 _symmetry_equiv_pos_site_id
 _symmetry_equiv_pos_as_xyz
  1  'x, y, z'
loop_
 _atom_site_type_symbol
 _atom_site_label
 _atom_site_symmetry_multiplicity
 _atom_site_fract_x
 _atom_site_fract_y
 _atom_site_fract_z
 _atom_site_occupancy
  K  K0  1  0.65428656  0.77739939  0.61582469  1.0
  K  K1  1  0.34571352  0.22260065  0.38417532  1.0
  K  K2  1  0.22260066  0.34571349  0.88417530  1.0
  K  K3  1  0.77739937  0.65428652  0.11582471  1.0
  K  K4  1  0.22191247  0.84331141  0.87549047  1.0
  K  K5  1  0.77808760  0.15668858  0.12450953  1.0
  K  K6  1  0.15668860  0.77808756  0.62450951  1.0
  K  K7  1  0.84331143  0.22191244  0.37549050  1.0
  Tl  Tl8  1  0.71473978  0.08841640  0.85277722  1.0
  Tl  Tl9  1  0.28526020  0.91158361  0.14722278  1.0
  Tl  Tl10  1  0.91158357  0.28526020  0.64722264  1.0
  Tl  Tl11  1  0.08841643  0.71473981  0.35277735  1.0
  Tl  Tl12  1  0.41274269  0.28555923  0.64860618  1.0
  Tl  Tl13  1  0.58725731  0.71444077  0.35139382  1.0
  Tl  Tl14  1  0.71444076  0.58725729  0.85139368  1.0
  Tl  Tl15  1  0.28555926  0.41274271  0.14860632  1.0
  O  O16  1  0.43592094  0.05831486  0.74995413  1.0
  O  O17  1  0.56407901  0.94168515  0.25004588  1.0
  O  O18  1  0.94168511  0.56407914  0.75004596  1.0
  O  O19  1  0.05831491  0.43592087  0.24995404  1.0
  O  O20  1  0.63608619  0.26234580  0.54624726  1.0
  O  O21  1  0.36391382  0.73765417  0.45375273  1.0
  O  O22  1  0.73765415  0.36391385  0.95375279  1.0
  O  O23  1  0.26234577  0.63608616  0.04624721  1.0
  O  O24  1  0.43497227  0.56502782  0.75000004  1.0
  O  O25  1  0.56502772  0.43497215  0.24999997  1.0
  O  O26  1  0.73652327  0.86299262  0.95257393  1.0
  O  O27  1  0.26347664  0.13700738  0.04742606  1.0
  O  O28  1  0.13700739  0.26347667  0.54742612  1.0
  O  O29  1  0.86299261  0.73652327  0.45257388  1.0
  O  O30  1  0.94059993  0.05940004  0.75000005  1.0
  O  O31  1  0.05940006  0.94059999  0.24999996  1.0
