# generated using pymatgen
data_KVI4
_symmetry_space_group_name_H-M   'P 1'
_cell_length_a   8.39163475
_cell_length_b   9.66386176
_cell_length_c   14.75395194
_cell_angle_alpha   76.34559940
_cell_angle_beta   90.00042991
_cell_angle_gamma   89.99959425
_symmetry_Int_Tables_number   1
_chemical_formula_structural   KVI4
_chemical_formula_sum   'K4 V4 I16'
_cell_volume   1162.66478938
_cell_formula_units_Z   4
loop_
 _symmetry_equiv_pos_site_id
 _symmetry_equiv_pos_as_xyz
  1  'x, y, z'
loop_
 _atom_site_type_symbol
 _atom_site_label
 _atom_site_symmetry_multiplicity
 _atom_site_fract_x
 _atom_site_fract_y
 _atom_site_fract_z
 _atom_site_occupancy
  K  K0  1  0.90109720  0.00000187  0.74999890  1.0
  K  K1  1  0.09890198  0.99999822  0.25000055  1.0
  K  K2  1  0.37028997  0.50000038  0.74999875  1.0
  K  K3  1  0.62970931  0.49999991  0.25000082  1.0
  V  V4  1  0.78498222  0.71071829  0.54936533  1.0
  V  V5  1  0.21502145  0.28927286  0.45062835  1.0
  V  V6  1  0.78497545  0.28927097  0.95062485  1.0
  V  V7  1  0.21501986  0.71073172  0.04937676  1.0
  I  I8  1  0.24301677  0.78860434  0.86841932  1.0
  I  I9  1  0.75698362  0.21139633  0.13157986  1.0
  I  I10  1  0.24301552  0.21139667  0.63157880  1.0
  I  I11  1  0.75698586  0.78860072  0.36842729  1.0
  I  I12  1  0.58263804  0.84908409  0.62854092  1.0
  I  I13  1  0.41736276  0.15091605  0.37145987  1.0
  I  I14  1  0.58263708  0.15091766  0.87146093  1.0
  I  I15  1  0.41736685  0.84908458  0.12854017  1.0
  I  I16  1  0.72386058  0.44288366  0.60652107  1.0
  I  I17  1  0.27614013  0.55712215  0.39347842  1.0
  I  I18  1  0.72385792  0.55712618  0.89347697  1.0
  I  I19  1  0.27614258  0.44287373  0.10652249  1.0
  I  I20  1  0.93129177  0.77360639  0.09810997  1.0
  I  I21  1  0.06870683  0.22639418  0.90188957  1.0
  I  I22  1  0.93129338  0.22639412  0.40188923  1.0
  I  I23  1  0.06870290  0.77360492  0.59811080  1.0
