# generated using pymatgen
data_LaBr2F
_symmetry_space_group_name_H-M   'P 1'
_cell_length_a   3.83255286
_cell_length_b   8.67128252
_cell_length_c   10.90424917
_cell_angle_alpha   73.54597270
_cell_angle_beta   90.48265200
_cell_angle_gamma   90.02214792
_symmetry_Int_Tables_number   1
_chemical_formula_structural   LaBr2F
_chemical_formula_sum   'La2 Br4 F2'
_cell_volume   347.52890852
_cell_formula_units_Z   2
loop_
 _symmetry_equiv_pos_site_id
 _symmetry_equiv_pos_as_xyz
  1  'x, y, z'
loop_
 _atom_site_type_symbol
 _atom_site_label
 _atom_site_symmetry_multiplicity
 _atom_site_fract_x
 _atom_site_fract_y
 _atom_site_fract_z
 _atom_site_occupancy
  La  La0  1  0.00094222  0.78084422  0.29476843  1.0
  La  La1  1  0.99905786  0.21915468  0.70523270  1.0
  Br  Br2  1  0.49859403  0.04588473  0.17976207  1.0
  Br  Br3  1  0.50140582  0.95411208  0.82023279  1.0
  Br  Br4  1  0.50613012  0.73990836  0.51268476  1.0
  Br  Br5  1  0.49386985  0.26009971  0.48731516  1.0
  F  F6  1  0.49951343  0.66180514  0.23958217  1.0
  F  F7  1  0.50048667  0.33819109  0.76042193  1.0
