# generated using pymatgen
data_LaHoAs2
_symmetry_space_group_name_H-M   'P 1'
_cell_length_a   5.16764132
_cell_length_b   5.16764112
_cell_length_c   5.16764144
_cell_angle_alpha   60.00001462
_cell_angle_beta   60.00001858
_cell_angle_gamma   60.00001519
_symmetry_Int_Tables_number   1
_chemical_formula_structural   LaHoAs2
_chemical_formula_sum   'La1 Ho1 As2'
_cell_volume   97.58032062
_cell_formula_units_Z   1
loop_
 _symmetry_equiv_pos_site_id
 _symmetry_equiv_pos_as_xyz
  1  'x, y, z'
loop_
 _atom_site_type_symbol
 _atom_site_label
 _atom_site_symmetry_multiplicity
 _atom_site_fract_x
 _atom_site_fract_y
 _atom_site_fract_z
 _atom_site_occupancy
  La  La0  1  0.50000005  0.50000004  0.49999995  1.0
  Ho  Ho1  1  0.00000006  0.99999996  0.00000000  1.0
  As  As2  1  0.24999995  0.25000001  0.25000001  1.0
  As  As3  1  0.74999994  0.74999999  0.75000005  1.0
