# generated using pymatgen
data_LiAuBr2
_symmetry_space_group_name_H-M   'P 1'
_cell_length_a   4.15298298
_cell_length_b   7.53220494
_cell_length_c   8.78537959
_cell_angle_alpha   68.61862036
_cell_angle_beta   89.98238912
_cell_angle_gamma   89.94490686
_symmetry_Int_Tables_number   1
_chemical_formula_structural   LiAuBr2
_chemical_formula_sum   'Li2 Au2 Br4'
_cell_volume   255.90195973
_cell_formula_units_Z   2
loop_
 _symmetry_equiv_pos_site_id
 _symmetry_equiv_pos_as_xyz
  1  'x, y, z'
loop_
 _atom_site_type_symbol
 _atom_site_label
 _atom_site_symmetry_multiplicity
 _atom_site_fract_x
 _atom_site_fract_y
 _atom_site_fract_z
 _atom_site_occupancy
  Li  Li0  1  0.99998079  0.09885074  0.79513867  1.0
  Li  Li1  1  0.00001921  0.90114927  0.20486133  1.0
  Au  Au2  1  0.50000000  0.50000001  0.00000000  1.0
  Au  Au3  1  0.50000000  0.49999999  0.50000000  1.0
  Br  Br4  1  0.50000994  0.15568649  0.61905577  1.0
  Br  Br5  1  0.00009661  0.74470909  0.99057491  1.0
  Br  Br6  1  0.99990339  0.25529093  0.00942508  1.0
  Br  Br7  1  0.49999006  0.84431350  0.38094423  1.0
