# generated using pymatgen
data_LiDySe2
_symmetry_space_group_name_H-M   'P 1'
_cell_length_a   4.09889497
_cell_length_b   6.92765699
_cell_length_c   7.12936370
_cell_angle_alpha   86.11498823
_cell_angle_beta   89.99999448
_cell_angle_gamma   89.99999648
_symmetry_Int_Tables_number   1
_chemical_formula_structural   LiDySe2
_chemical_formula_sum   'Li2 Dy2 Se4'
_cell_volume   201.97833875
_cell_formula_units_Z   2
loop_
 _symmetry_equiv_pos_site_id
 _symmetry_equiv_pos_as_xyz
  1  'x, y, z'
loop_
 _atom_site_type_symbol
 _atom_site_label
 _atom_site_symmetry_multiplicity
 _atom_site_fract_x
 _atom_site_fract_y
 _atom_site_fract_z
 _atom_site_occupancy
  Li  Li0  1  0.49999995  0.59644860  0.19724118  1.0
  Li  Li1  1  0.50000005  0.40355140  0.80275881  1.0
  Dy  Dy2  1  0.00000000  0.00000001  0.00000000  1.0
  Dy  Dy3  1  0.50000000  0.00000001  0.50000000  1.0
  Se  Se4  1  0.50000004  0.23460061  0.14895909  1.0
  Se  Se5  1  0.00000003  0.23494888  0.65188553  1.0
  Se  Se6  1  0.99999997  0.76505110  0.34811447  1.0
  Se  Se7  1  0.49999996  0.76539939  0.85104092  1.0
