# generated using pymatgen
data_LiDyH4
_symmetry_space_group_name_H-M   'P 1'
_cell_length_a   5.15485441
_cell_length_b   4.87488096
_cell_length_c   5.15973480
_cell_angle_alpha   84.26793210
_cell_angle_beta   90.00000133
_cell_angle_gamma   89.99999346
_symmetry_Int_Tables_number   1
_chemical_formula_structural   LiDyH4
_chemical_formula_sum   'Li2 Dy2 H8'
_cell_volume   129.01220679
_cell_formula_units_Z   2
loop_
 _symmetry_equiv_pos_site_id
 _symmetry_equiv_pos_as_xyz
  1  'x, y, z'
loop_
 _atom_site_type_symbol
 _atom_site_label
 _atom_site_symmetry_multiplicity
 _atom_site_fract_x
 _atom_site_fract_y
 _atom_site_fract_z
 _atom_site_occupancy
  Li  Li0  1  0.70718706  0.49999999  0.74999983  1.0
  Li  Li1  1  0.29281295  0.50000001  0.25000016  1.0
  Dy  Dy2  1  0.24648603  0.99999999  0.75000003  1.0
  Dy  Dy3  1  0.75351397  0.00000001  0.24999997  1.0
  H  H4  1  0.93111239  0.23036138  0.91118500  1.0
  H  H5  1  0.44885916  0.24522429  0.02541679  1.0
  H  H6  1  0.44885921  0.75477573  0.47458324  1.0
  H  H7  1  0.93111242  0.76963863  0.58881495  1.0
  H  H8  1  0.06888758  0.23036138  0.41118505  1.0
  H  H9  1  0.55114078  0.24522428  0.52541676  1.0
  H  H10  1  0.55114084  0.75477570  0.97458322  1.0
  H  H11  1  0.06888761  0.76963861  0.08881500  1.0
