# generated using pymatgen
data_LiGeP
_symmetry_space_group_name_H-M   'P 1'
_cell_length_a   4.36780550
_cell_length_b   4.36781049
_cell_length_c   4.36781138
_cell_angle_alpha   59.99966100
_cell_angle_beta   59.99964219
_cell_angle_gamma   59.99966556
_symmetry_Int_Tables_number   1
_chemical_formula_structural   LiGeP
_chemical_formula_sum   'Li1 Ge1 P1'
_cell_volume   58.92133398
_cell_formula_units_Z   1
loop_
 _symmetry_equiv_pos_site_id
 _symmetry_equiv_pos_as_xyz
  1  'x, y, z'
loop_
 _atom_site_type_symbol
 _atom_site_label
 _atom_site_symmetry_multiplicity
 _atom_site_fract_x
 _atom_site_fract_y
 _atom_site_fract_z
 _atom_site_occupancy
  Li  Li0  1  0.49999973  0.49999951  0.49999946  1.0
  Ge  Ge1  1  0.25000061  0.25000055  0.25000070  1.0
  P  P2  1  0.99999966  0.99999994  0.99999984  1.0
