# generated using pymatgen
data_LiMnO2
_symmetry_space_group_name_H-M   'P 1'
_cell_length_a   2.92598982
_cell_length_b   3.03954080
_cell_length_c   5.09788085
_cell_angle_alpha   90.02296270
_cell_angle_beta   86.96314271
_cell_angle_gamma   121.33426765
_symmetry_Int_Tables_number   1
_chemical_formula_structural   LiMnO2
_chemical_formula_sum   'Li1 Mn1 O2'
_cell_volume   38.65210362
_cell_formula_units_Z   1
loop_
 _symmetry_equiv_pos_site_id
 _symmetry_equiv_pos_as_xyz
  1  'x, y, z'
loop_
 _atom_site_type_symbol
 _atom_site_label
 _atom_site_symmetry_multiplicity
 _atom_site_fract_x
 _atom_site_fract_y
 _atom_site_fract_z
 _atom_site_occupancy
  Li  Li0  1  0.00000000  0.00000000  0.50000000  1.0
  Mn  Mn1  1  0.00000000  0.00000000  0.00000000  1.0
  O  O2  1  0.35546520  0.67726921  0.22663320  1.0
  O  O3  1  0.64453480  0.32273079  0.77336680  1.0
