# generated using pymatgen
data_LiOsS2
_symmetry_space_group_name_H-M   'P 1'
_cell_length_a   3.76815255
_cell_length_b   6.58714042
_cell_length_c   7.82559222
_cell_angle_alpha   73.37203669
_cell_angle_beta   89.98457492
_cell_angle_gamma   90.00721514
_symmetry_Int_Tables_number   1
_chemical_formula_structural   LiOsS2
_chemical_formula_sum   'Li2 Os2 S4'
_cell_volume   186.11915024
_cell_formula_units_Z   2
loop_
 _symmetry_equiv_pos_site_id
 _symmetry_equiv_pos_as_xyz
  1  'x, y, z'
loop_
 _atom_site_type_symbol
 _atom_site_label
 _atom_site_symmetry_multiplicity
 _atom_site_fract_x
 _atom_site_fract_y
 _atom_site_fract_z
 _atom_site_occupancy
  Li  Li0  1  0.50000606  0.49997719  0.00003455  1.0
  Li  Li1  1  0.50000445  0.50000531  0.50000857  1.0
  Os  Os2  1  0.00012988  0.09068193  0.79611114  1.0
  Os  Os3  1  0.99985840  0.90928609  0.20385590  1.0
  S  S4  1  0.50023178  0.14050758  0.64284500  1.0
  S  S5  1  0.00003503  0.74846219  0.97933824  1.0
  S  S6  1  0.99997090  0.25153427  0.02065294  1.0
  S  S7  1  0.49976349  0.85954544  0.35715366  1.0
