# generated using pymatgen
data_LiScTe2
_symmetry_space_group_name_H-M   'P 1'
_cell_length_a   8.43282077
_cell_length_b   8.30953929
_cell_length_c   7.26211815
_cell_angle_alpha   88.32207669
_cell_angle_beta   90.51000347
_cell_angle_gamma   59.49081241
_symmetry_Int_Tables_number   1
_chemical_formula_structural   LiScTe2
_chemical_formula_sum   'Li4 Sc4 Te8'
_cell_volume   438.06724251
_cell_formula_units_Z   4
loop_
 _symmetry_equiv_pos_site_id
 _symmetry_equiv_pos_as_xyz
  1  'x, y, z'
loop_
 _atom_site_type_symbol
 _atom_site_label
 _atom_site_symmetry_multiplicity
 _atom_site_fract_x
 _atom_site_fract_y
 _atom_site_fract_z
 _atom_site_occupancy
  Li  Li0  1  0.17298912  0.38360917  0.40635341  1.0
  Li  Li1  1  0.42746851  0.50622919  0.23536917  1.0
  Li  Li2  1  0.82705173  0.61635157  0.59365117  1.0
  Li  Li3  1  0.57253740  0.49379594  0.76457185  1.0
  Sc  Sc4  1  0.62692724  0.99549537  0.24216788  1.0
  Sc  Sc5  1  0.12421877  0.01326384  0.24335312  1.0
  Sc  Sc6  1  0.37309720  0.00446264  0.75786126  1.0
  Sc  Sc7  1  0.87575831  0.98672249  0.75665415  1.0
  Te  Te8  1  0.74066697  0.75691438  0.92904229  1.0
  Te  Te9  1  0.25934468  0.24308824  0.07098028  1.0
  Te  Te10  1  0.00219994  0.76739196  0.41795284  1.0
  Te  Te11  1  0.24215124  0.76706973  0.92769191  1.0
  Te  Te12  1  0.99780746  0.23260648  0.58206014  1.0
  Te  Te13  1  0.75779942  0.23296368  0.07228057  1.0
  Te  Te14  1  0.48820804  0.76712166  0.42906387  1.0
  Te  Te15  1  0.51177398  0.23291367  0.57094608  1.0
