# generated using pymatgen
data_LuBr2F
_symmetry_space_group_name_H-M   'P 1'
_cell_length_a   4.97230310
_cell_length_b   4.97235303
_cell_length_c   4.25992788
_cell_angle_alpha   89.99906822
_cell_angle_beta   89.99742961
_cell_angle_gamma   120.00213706
_symmetry_Int_Tables_number   1
_chemical_formula_structural   LuBr2F
_chemical_formula_sum   'Lu1 Br2 F1'
_cell_volume   91.21012995
_cell_formula_units_Z   1
loop_
 _symmetry_equiv_pos_site_id
 _symmetry_equiv_pos_as_xyz
  1  'x, y, z'
loop_
 _atom_site_type_symbol
 _atom_site_label
 _atom_site_symmetry_multiplicity
 _atom_site_fract_x
 _atom_site_fract_y
 _atom_site_fract_z
 _atom_site_occupancy
  Lu  Lu0  1  0.00000226  0.00000098  0.49999887  1.0
  Br  Br1  1  0.66666667  0.33333333  0.69104399  1.0
  Br  Br2  1  0.33333333  0.66666667  0.30895682  1.0
  F  F3  1  0.99999897  0.99999934  0.00000032  1.0
