# generated using pymatgen
data_LuH2Cl
_symmetry_space_group_name_H-M   'P 1'
_cell_length_a   3.21935752
_cell_length_b   7.83950961
_cell_length_c   7.99251471
_cell_angle_alpha   75.40201295
_cell_angle_beta   90.01596649
_cell_angle_gamma   90.01213847
_symmetry_Int_Tables_number   1
_chemical_formula_structural   LuH2Cl
_chemical_formula_sum   'Lu2 H4 Cl2'
_cell_volume   195.20474018
_cell_formula_units_Z   2
loop_
 _symmetry_equiv_pos_site_id
 _symmetry_equiv_pos_as_xyz
  1  'x, y, z'
loop_
 _atom_site_type_symbol
 _atom_site_label
 _atom_site_symmetry_multiplicity
 _atom_site_fract_x
 _atom_site_fract_y
 _atom_site_fract_z
 _atom_site_occupancy
  Lu  Lu0  1  0.00007473  0.84049355  0.30793659  1.0
  Lu  Lu1  1  0.99992513  0.15950654  0.69206324  1.0
  H  H2  1  0.50006136  0.99694194  0.18579188  1.0
  H  H3  1  0.49993855  0.00305824  0.81420818  1.0
  H  H4  1  0.50018532  0.83661808  0.48236191  1.0
  H  H5  1  0.49981464  0.16338181  0.51763841  1.0
  Cl  Cl6  1  0.49993623  0.61229422  0.23601121  1.0
  Cl  Cl7  1  0.50006404  0.38770562  0.76398859  1.0
