# generated using pymatgen
data_LuHgO2
_symmetry_space_group_name_H-M   'P 1'
_cell_length_a   3.33165292
_cell_length_b   3.33170377
_cell_length_c   6.51074027
_cell_angle_alpha   90.00117065
_cell_angle_beta   90.00017951
_cell_angle_gamma   119.99979197
_symmetry_Int_Tables_number   1
_chemical_formula_structural   LuHgO2
_chemical_formula_sum   'Lu1 Hg1 O2'
_cell_volume   62.58756343
_cell_formula_units_Z   1
loop_
 _symmetry_equiv_pos_site_id
 _symmetry_equiv_pos_as_xyz
  1  'x, y, z'
loop_
 _atom_site_type_symbol
 _atom_site_label
 _atom_site_symmetry_multiplicity
 _atom_site_fract_x
 _atom_site_fract_y
 _atom_site_fract_z
 _atom_site_occupancy
  Lu  Lu0  1  0.00000000  0.99999957  0.00000006  1.0
  Hg  Hg1  1  0.99999988  0.00000098  0.50000005  1.0
  O  O2  1  0.66666667  0.33333333  0.82950291  1.0
  O  O3  1  0.33333333  0.66666667  0.17049698  1.0
