# generated using pymatgen
data_LuP2Os
_symmetry_space_group_name_H-M   'P 1'
_cell_length_a   4.46355976
_cell_length_b   4.46355594
_cell_length_c   4.46355572
_cell_angle_alpha   59.99999640
_cell_angle_beta   60.00000368
_cell_angle_gamma   60.00000288
_symmetry_Int_Tables_number   1
_chemical_formula_structural   LuP2Os
_chemical_formula_sum   'Lu1 P2 Os1'
_cell_volume   62.88228406
_cell_formula_units_Z   1
loop_
 _symmetry_equiv_pos_site_id
 _symmetry_equiv_pos_as_xyz
  1  'x, y, z'
loop_
 _atom_site_type_symbol
 _atom_site_label
 _atom_site_symmetry_multiplicity
 _atom_site_fract_x
 _atom_site_fract_y
 _atom_site_fract_z
 _atom_site_occupancy
  Lu  Lu0  1  0.25000017  0.25000016  0.25000010  1.0
  P  P1  1  0.50000105  0.50000081  0.50000081  1.0
  P  P2  1  0.99999995  0.00000013  0.00000008  1.0
  Os  Os3  1  0.75000082  0.75000091  0.75000101  1.0
