# generated using pymatgen
data_LuScN2
_symmetry_space_group_name_H-M   'P 1'
_cell_length_a   3.23601709
_cell_length_b   3.23601685
_cell_length_c   5.67176404
_cell_angle_alpha   90.00001821
_cell_angle_beta   89.99997642
_cell_angle_gamma   120.00002420
_symmetry_Int_Tables_number   1
_chemical_formula_structural   LuScN2
_chemical_formula_sum   'Lu1 Sc1 N2'
_cell_volume   51.43636405
_cell_formula_units_Z   1
loop_
 _symmetry_equiv_pos_site_id
 _symmetry_equiv_pos_as_xyz
  1  'x, y, z'
loop_
 _atom_site_type_symbol
 _atom_site_label
 _atom_site_symmetry_multiplicity
 _atom_site_fract_x
 _atom_site_fract_y
 _atom_site_fract_z
 _atom_site_occupancy
  Lu  Lu0  1  0.00000077  0.00000029  0.50000006  1.0
  Sc  Sc1  1  0.99999981  0.99999949  0.00000005  1.0
  N  N2  1  0.33333333  0.66666667  0.24286467  1.0
  N  N3  1  0.66666667  0.33333333  0.75713521  1.0
