# generated using pymatgen
data_LuSi2W
_symmetry_space_group_name_H-M   'P 1'
_cell_length_a   4.53984577
_cell_length_b   4.53985096
_cell_length_c   4.53984901
_cell_angle_alpha   59.99975091
_cell_angle_beta   60.00003394
_cell_angle_gamma   60.00010290
_symmetry_Int_Tables_number   1
_chemical_formula_structural   LuSi2W
_chemical_formula_sum   'Lu1 Si2 W1'
_cell_volume   66.16201711
_cell_formula_units_Z   1
loop_
 _symmetry_equiv_pos_site_id
 _symmetry_equiv_pos_as_xyz
  1  'x, y, z'
loop_
 _atom_site_type_symbol
 _atom_site_label
 _atom_site_symmetry_multiplicity
 _atom_site_fract_x
 _atom_site_fract_y
 _atom_site_fract_z
 _atom_site_occupancy
  Lu  Lu0  1  0.49999992  0.50000001  0.49999998  1.0
  Si  Si1  1  0.25000064  0.24999938  0.24999947  1.0
  Si  Si2  1  0.74999943  0.75000058  0.75000051  1.0
  W  W3  1  0.00000002  0.00000003  0.00000004  1.0
