# generated using pymatgen
data_Mg5TeS8
_symmetry_space_group_name_H-M   'P 1'
_cell_length_a   7.40434060
_cell_length_b   7.40281260
_cell_length_c   7.39951284
_cell_angle_alpha   91.43870325
_cell_angle_beta   59.12302865
_cell_angle_gamma   62.48122905
_symmetry_Int_Tables_number   1
_chemical_formula_structural   Mg5TeS8
_chemical_formula_sum   'Mg5 Te1 S8'
_cell_volume   289.82232265
_cell_formula_units_Z   1
loop_
 _symmetry_equiv_pos_site_id
 _symmetry_equiv_pos_as_xyz
  1  'x, y, z'
loop_
 _atom_site_type_symbol
 _atom_site_label
 _atom_site_symmetry_multiplicity
 _atom_site_fract_x
 _atom_site_fract_y
 _atom_site_fract_z
 _atom_site_occupancy
  Mg  Mg0  1  0.99999651  0.50000615  0.50000965  1.0
  Mg  Mg1  1  0.99999444  0.99999501  0.00000067  1.0
  Mg  Mg2  1  0.50000469  0.99999726  0.99999852  1.0
  Mg  Mg3  1  0.99999858  0.50000323  0.99999873  1.0
  Mg  Mg4  1  0.50000124  0.50000742  0.00000607  1.0
  Te  Te5  1  0.50000245  0.00000621  0.50000358  1.0
  S  S6  1  0.47891323  0.25336769  0.77441180  1.0
  S  S7  1  0.00011262  0.24614985  0.74831642  1.0
  S  S8  1  0.49783965  0.74844569  0.74834431  1.0
  S  S9  1  0.97920609  0.74907416  0.76974428  1.0
  S  S10  1  0.02075542  0.25092527  0.23029390  1.0
  S  S11  1  0.50214402  0.25157322  0.25165058  1.0
  S  S12  1  0.99991134  0.75382876  0.25167866  1.0
  S  S13  1  0.52111975  0.74662008  0.22554281  1.0
