# generated using pymatgen
data_MgFeO2
_symmetry_space_group_name_H-M   'P 1'
_cell_length_a   4.28950054
_cell_length_b   4.28950176
_cell_length_c   5.14536154
_cell_angle_alpha   67.89299758
_cell_angle_beta   67.89299963
_cell_angle_gamma   92.11555276
_symmetry_Int_Tables_number   1
_chemical_formula_structural   MgFeO2
_chemical_formula_sum   'Mg2 Fe2 O4'
_cell_volume   79.48765506
_cell_formula_units_Z   2
loop_
 _symmetry_equiv_pos_site_id
 _symmetry_equiv_pos_as_xyz
  1  'x, y, z'
loop_
 _atom_site_type_symbol
 _atom_site_label
 _atom_site_symmetry_multiplicity
 _atom_site_fract_x
 _atom_site_fract_y
 _atom_site_fract_z
 _atom_site_occupancy
  Mg  Mg0  1  0.62581461  0.37418551  0.74999989  1.0
  Mg  Mg1  1  0.37418545  0.62581454  0.25000000  1.0
  Fe  Fe2  1  0.87627244  0.12372752  0.25000002  1.0
  Fe  Fe3  1  0.12372749  0.87627241  0.75000014  1.0
  O  O4  1  0.38391682  0.13402236  0.23425400  1.0
  O  O5  1  0.86597764  0.61608317  0.26574598  1.0
  O  O6  1  0.13402236  0.38391684  0.73425400  1.0
  O  O7  1  0.61608318  0.86597764  0.76574598  1.0
