# generated using pymatgen
data_MgIrS2
_symmetry_space_group_name_H-M   'P 1'
_cell_length_a   6.42668631
_cell_length_b   6.42668943
_cell_length_c   11.30960132
_cell_angle_alpha   84.60788150
_cell_angle_beta   84.60793778
_cell_angle_gamma   119.94625224
_symmetry_Int_Tables_number   1
_chemical_formula_structural   MgIrS2
_chemical_formula_sum   'Mg6 Ir6 S12'
_cell_volume   397.54964147
_cell_formula_units_Z   6
loop_
 _symmetry_equiv_pos_site_id
 _symmetry_equiv_pos_as_xyz
  1  'x, y, z'
loop_
 _atom_site_type_symbol
 _atom_site_label
 _atom_site_symmetry_multiplicity
 _atom_site_fract_x
 _atom_site_fract_y
 _atom_site_fract_z
 _atom_site_occupancy
  Mg  Mg0  1  0.58426073  0.41573916  0.24999990  1.0
  Mg  Mg1  1  0.41573900  0.58426108  0.75000009  1.0
  Mg  Mg2  1  0.91797041  0.08202978  0.24999974  1.0
  Mg  Mg3  1  0.08202947  0.91797034  0.75000025  1.0
  Mg  Mg4  1  0.25052025  0.74948023  0.24999960  1.0
  Mg  Mg5  1  0.74948008  0.25051942  0.75000042  1.0
  Ir  Ir6  1  0.49999997  0.00000000  0.50000002  1.0
  Ir  Ir7  1  0.99999998  0.50000003  0.99999999  1.0
  Ir  Ir8  1  0.66649627  0.83327214  0.00013138  1.0
  Ir  Ir9  1  0.33350378  0.16672785  0.99986865  1.0
  Ir  Ir10  1  0.16672832  0.33350381  0.49986862  1.0
  Ir  Ir11  1  0.83327169  0.66649614  0.50013136  1.0
  S  S12  1  0.79794653  0.96487045  0.60720116  1.0
  S  S13  1  0.20205413  0.03513087  0.39279879  1.0
  S  S14  1  0.03512764  0.20205093  0.89280576  1.0
  S  S15  1  0.96487104  0.79794842  0.10719430  1.0
  S  S16  1  0.63115847  0.13133097  0.10763078  1.0
  S  S17  1  0.36884237  0.86866840  0.89236920  1.0
  S  S18  1  0.86867098  0.36884352  0.39236207  1.0
  S  S19  1  0.13132963  0.63115564  0.60763794  1.0
  S  S20  1  0.53587503  0.70195509  0.39208366  1.0
  S  S21  1  0.46412365  0.29804436  0.60791636  1.0
  S  S22  1  0.29804741  0.46412706  0.10790918  1.0
  S  S23  1  0.70195317  0.53587430  0.89209080  1.0
