# generated using pymatgen
data_MgPbS2
_symmetry_space_group_name_H-M   'P 1'
_cell_length_a   4.49899556
_cell_length_b   7.76268465
_cell_length_c   7.97614092
_cell_angle_alpha   71.10734173
_cell_angle_beta   89.99999889
_cell_angle_gamma   90.00000562
_symmetry_Int_Tables_number   1
_chemical_formula_structural   MgPbS2
_chemical_formula_sum   'Mg2 Pb2 S4'
_cell_volume   263.55405184
_cell_formula_units_Z   2
loop_
 _symmetry_equiv_pos_site_id
 _symmetry_equiv_pos_as_xyz
  1  'x, y, z'
loop_
 _atom_site_type_symbol
 _atom_site_label
 _atom_site_symmetry_multiplicity
 _atom_site_fract_x
 _atom_site_fract_y
 _atom_site_fract_z
 _atom_site_occupancy
  Mg  Mg0  1  0.49999938  0.00000002  0.50000001  1.0
  Mg  Mg1  1  0.00000086  0.50000008  0.50000001  1.0
  Pb  Pb2  1  0.49999990  0.50000001  0.99999998  1.0
  Pb  Pb3  1  0.00000005  0.99999994  0.00000004  1.0
  S  S4  1  0.99999996  0.59999430  0.19981687  1.0
  S  S5  1  0.00000000  0.40000571  0.80018308  1.0
  S  S6  1  0.49999997  0.09930711  0.19980442  1.0
  S  S7  1  0.49999988  0.90069283  0.80019558  1.0
