# generated using pymatgen
data_MgPdSe2
_symmetry_space_group_name_H-M   'P 1'
_cell_length_a   3.80755333
_cell_length_b   10.04878992
_cell_length_c   6.54133890
_cell_angle_alpha   140.10239749
_cell_angle_beta   90.00208762
_cell_angle_gamma   89.99885298
_symmetry_Int_Tables_number   1
_chemical_formula_structural   MgPdSe2
_chemical_formula_sum   'Mg2 Pd2 Se4'
_cell_volume   160.53407741
_cell_formula_units_Z   2
loop_
 _symmetry_equiv_pos_site_id
 _symmetry_equiv_pos_as_xyz
  1  'x, y, z'
loop_
 _atom_site_type_symbol
 _atom_site_label
 _atom_site_symmetry_multiplicity
 _atom_site_fract_x
 _atom_site_fract_y
 _atom_site_fract_z
 _atom_site_occupancy
  Mg  Mg0  1  0.00000103  0.99999859  0.49999652  1.0
  Mg  Mg1  1  0.00000070  0.49999827  0.49999742  1.0
  Pd  Pd2  1  0.49999955  0.50000056  0.00000164  1.0
  Pd  Pd3  1  0.99999983  0.00000087  0.00000114  1.0
  Se  Se4  1  0.49999584  0.19758985  0.00098852  1.0
  Se  Se5  1  0.00000271  0.30938529  0.61840134  1.0
  Se  Se6  1  0.99999626  0.69061627  0.38160236  1.0
  Se  Se7  1  0.50000408  0.80241031  0.99901104  1.0
