# generated using pymatgen
data_MgRuI4
_symmetry_space_group_name_H-M   'P 1'
_cell_length_a   6.53464122
_cell_length_b   7.08375374
_cell_length_c   8.05039634
_cell_angle_alpha   89.99999614
_cell_angle_beta   89.99999685
_cell_angle_gamma   92.78938312
_symmetry_Int_Tables_number   1
_chemical_formula_structural   MgRuI4
_chemical_formula_sum   'Mg2 Ru2 I8'
_cell_volume   372.20962190
_cell_formula_units_Z   2
loop_
 _symmetry_equiv_pos_site_id
 _symmetry_equiv_pos_as_xyz
  1  'x, y, z'
loop_
 _atom_site_type_symbol
 _atom_site_label
 _atom_site_symmetry_multiplicity
 _atom_site_fract_x
 _atom_site_fract_y
 _atom_site_fract_z
 _atom_site_occupancy
  Mg  Mg0  1  0.99999998  0.75000001  0.85605598  1.0
  Mg  Mg1  1  0.00000002  0.25000001  0.14394575  1.0
  Ru  Ru2  1  0.49999999  0.75000000  0.37028381  1.0
  Ru  Ru3  1  0.50000001  0.25000001  0.62971554  1.0
  I  I4  1  0.74342063  0.41631711  0.87624914  1.0
  I  I5  1  0.25657761  0.58368236  0.12375077  1.0
  I  I6  1  0.25657937  0.08368287  0.87624913  1.0
  I  I7  1  0.74342239  0.91631765  0.12375078  1.0
  I  I8  1  0.72741975  0.94024925  0.59965317  1.0
  I  I9  1  0.27257925  0.05975082  0.40034637  1.0
  I  I10  1  0.27258025  0.55975076  0.59965316  1.0
  I  I11  1  0.72742075  0.44024917  0.40034638  1.0
