# generated using pymatgen
data_MgTe4Mo
_symmetry_space_group_name_H-M   'P 1'
_cell_length_a   5.93204951
_cell_length_b   7.02801632
_cell_length_c   8.52413432
_cell_angle_alpha   89.99999588
_cell_angle_beta   90.00000137
_cell_angle_gamma   89.35749052
_symmetry_Int_Tables_number   1
_chemical_formula_structural   MgTe4Mo
_chemical_formula_sum   'Mg2 Te8 Mo2'
_cell_volume   355.35342506
_cell_formula_units_Z   2
loop_
 _symmetry_equiv_pos_site_id
 _symmetry_equiv_pos_as_xyz
  1  'x, y, z'
loop_
 _atom_site_type_symbol
 _atom_site_label
 _atom_site_symmetry_multiplicity
 _atom_site_fract_x
 _atom_site_fract_y
 _atom_site_fract_z
 _atom_site_occupancy
  Mg  Mg0  1  0.00000002  0.74999995  0.83680842  1.0
  Mg  Mg1  1  0.99999997  0.25000006  0.16319304  1.0
  Te  Te2  1  0.77724232  0.37694921  0.86789445  1.0
  Te  Te3  1  0.22275659  0.62304761  0.13210427  1.0
  Te  Te4  1  0.22275744  0.12305084  0.86789440  1.0
  Te  Te5  1  0.77724367  0.87695233  0.13210433  1.0
  Te  Te6  1  0.74793307  0.93169477  0.58468112  1.0
  Te  Te7  1  0.25206427  0.06830697  0.41532142  1.0
  Te  Te8  1  0.25206671  0.56830518  0.58468099  1.0
  Te  Te9  1  0.74793596  0.43169309  0.41532156  1.0
  Mo  Mo10  1  0.50000012  0.75000000  0.35556416  1.0
  Mo  Mo11  1  0.49999988  0.24999999  0.64443185  1.0
