# generated using pymatgen
data_MnCuSe2
_symmetry_space_group_name_H-M   'P 1'
_cell_length_a   3.81081081
_cell_length_b   6.44997461
_cell_length_c   6.53609298
_cell_angle_alpha   90.12649934
_cell_angle_beta   90.00000091
_cell_angle_gamma   89.99999525
_symmetry_Int_Tables_number   1
_chemical_formula_structural   MnCuSe2
_chemical_formula_sum   'Mn2 Cu2 Se4'
_cell_volume   160.65437494
_cell_formula_units_Z   2
loop_
 _symmetry_equiv_pos_site_id
 _symmetry_equiv_pos_as_xyz
  1  'x, y, z'
loop_
 _atom_site_type_symbol
 _atom_site_label
 _atom_site_symmetry_multiplicity
 _atom_site_fract_x
 _atom_site_fract_y
 _atom_site_fract_z
 _atom_site_occupancy
  Mn  Mn0  1  0.00000000  0.00000005  0.00000077  1.0
  Mn  Mn1  1  0.50000000  0.00000000  0.49999721  1.0
  Cu  Cu2  1  0.50000011  0.58163133  0.18322576  1.0
  Cu  Cu3  1  0.49999989  0.41836884  0.81677590  1.0
  Se  Se4  1  0.50000000  0.21607900  0.16563635  1.0
  Se  Se5  1  0.99999994  0.22728483  0.68049865  1.0
  Se  Se6  1  0.00000006  0.77271186  0.31950323  1.0
  Se  Se7  1  0.50000000  0.78392409  0.83436212  1.0
