# generated using pymatgen
data_MnNiS2
_symmetry_space_group_name_H-M   'P 1'
_cell_length_a   3.43370615
_cell_length_b   3.42788044
_cell_length_c   11.90131057
_cell_angle_alpha   91.25163329
_cell_angle_beta   89.28732582
_cell_angle_gamma   119.96976857
_symmetry_Int_Tables_number   1
_chemical_formula_structural   MnNiS2
_chemical_formula_sum   'Mn2 Ni2 S4'
_cell_volume   121.32271604
_cell_formula_units_Z   2
loop_
 _symmetry_equiv_pos_site_id
 _symmetry_equiv_pos_as_xyz
  1  'x, y, z'
loop_
 _atom_site_type_symbol
 _atom_site_label
 _atom_site_symmetry_multiplicity
 _atom_site_fract_x
 _atom_site_fract_y
 _atom_site_fract_z
 _atom_site_occupancy
  Mn  Mn0  1  0.67596037  0.33708917  0.25003542  1.0
  Mn  Mn1  1  0.32364503  0.66255999  0.74998133  1.0
  Ni  Ni2  1  0.00026428  0.00048342  0.50002277  1.0
  Ni  Ni3  1  0.99978722  0.99954740  0.99997421  1.0
  S  S4  1  0.33261050  0.65139151  0.38488006  1.0
  S  S5  1  0.66829408  0.35022329  0.61510084  1.0
  S  S6  1  0.67017686  0.31853795  0.88493514  1.0
  S  S7  1  0.32926167  0.68016728  0.11507023  1.0
