# generated using pymatgen
data_MnPO4
_symmetry_space_group_name_H-M   'P 1'
_cell_length_a   5.36004454
_cell_length_b   4.45766962
_cell_length_c   4.59997315
_cell_angle_alpha   96.20796228
_cell_angle_beta   89.99860531
_cell_angle_gamma   90.00342776
_symmetry_Int_Tables_number   1
_chemical_formula_structural   MnPO4
_chemical_formula_sum   'Mn2 P2 O8'
_cell_volume   109.26406389
_cell_formula_units_Z   2
loop_
 _symmetry_equiv_pos_site_id
 _symmetry_equiv_pos_as_xyz
  1  'x, y, z'
loop_
 _atom_site_type_symbol
 _atom_site_label
 _atom_site_symmetry_multiplicity
 _atom_site_fract_x
 _atom_site_fract_y
 _atom_site_fract_z
 _atom_site_occupancy
  Mn  Mn0  1  0.81994039  0.00002095  0.75000726  1.0
  Mn  Mn1  1  0.18005962  0.99998836  0.25000483  1.0
  P  P2  1  0.35542414  0.49999679  0.74999872  1.0
  P  P3  1  0.64457586  0.50000255  0.24999860  1.0
  O  O4  1  0.14498365  0.74037716  0.89790995  1.0
  O  O5  1  0.85503066  0.74039801  0.39790913  1.0
  O  O6  1  0.59846883  0.70558564  0.95452358  1.0
  O  O7  1  0.40154382  0.70557901  0.45452581  1.0
  O  O8  1  0.59843470  0.29441418  0.54545603  1.0
  O  O9  1  0.40155264  0.29440761  0.04545823  1.0
  O  O10  1  0.14495211  0.25960444  0.60210434  1.0
  O  O11  1  0.85503359  0.25962531  0.10210352  1.0
