# generated using pymatgen
data_MnPtCl4
_symmetry_space_group_name_H-M   'P 1'
_cell_length_a   7.13831894
_cell_length_b   5.76029522
_cell_length_c   6.33012891
_cell_angle_alpha   89.48920384
_cell_angle_beta   90.00000442
_cell_angle_gamma   89.99999698
_symmetry_Int_Tables_number   1
_chemical_formula_structural   MnPtCl4
_chemical_formula_sum   'Mn2 Pt2 Cl8'
_cell_volume   260.27711595
_cell_formula_units_Z   2
loop_
 _symmetry_equiv_pos_site_id
 _symmetry_equiv_pos_as_xyz
  1  'x, y, z'
loop_
 _atom_site_type_symbol
 _atom_site_label
 _atom_site_symmetry_multiplicity
 _atom_site_fract_x
 _atom_site_fract_y
 _atom_site_fract_z
 _atom_site_occupancy
  Mn  Mn0  1  0.86077768  0.00000004  0.74999992  1.0
  Mn  Mn1  1  0.13922241  0.00000000  0.25000001  1.0
  Pt  Pt2  1  0.36077827  0.50000000  0.75000004  1.0
  Pt  Pt3  1  0.63922172  0.49999999  0.24999998  1.0
  Cl  Cl4  1  0.11721045  0.76279926  0.92383634  1.0
  Cl  Cl5  1  0.88278951  0.76279929  0.42383631  1.0
  Cl  Cl6  1  0.62086942  0.74084249  0.91769616  1.0
  Cl  Cl7  1  0.37913057  0.74084247  0.41769616  1.0
  Cl  Cl8  1  0.62086939  0.25915752  0.58230383  1.0
  Cl  Cl9  1  0.37913057  0.25915747  0.08230388  1.0
  Cl  Cl10  1  0.11721048  0.23720075  0.57616368  1.0
  Cl  Cl11  1  0.88278954  0.23720070  0.07616367  1.0
