# generated using pymatgen
data_MnSnBr4
_symmetry_space_group_name_H-M   'P 1'
_cell_length_a   7.93732709
_cell_length_b   6.64437569
_cell_length_c   7.14196996
_cell_angle_alpha   87.86270201
_cell_angle_beta   89.99997635
_cell_angle_gamma   89.99999455
_symmetry_Int_Tables_number   1
_chemical_formula_structural   MnSnBr4
_chemical_formula_sum   'Mn2 Sn2 Br8'
_cell_volume   376.39534667
_cell_formula_units_Z   2
loop_
 _symmetry_equiv_pos_site_id
 _symmetry_equiv_pos_as_xyz
  1  'x, y, z'
loop_
 _atom_site_type_symbol
 _atom_site_label
 _atom_site_symmetry_multiplicity
 _atom_site_fract_x
 _atom_site_fract_y
 _atom_site_fract_z
 _atom_site_occupancy
  Mn  Mn0  1  0.87282842  0.99999998  0.75000012  1.0
  Mn  Mn1  1  0.12717089  0.99999999  0.24999993  1.0
  Sn  Sn2  1  0.34964565  0.49999980  0.74999981  1.0
  Sn  Sn3  1  0.65035390  0.50000021  0.25000019  1.0
  Br  Br4  1  0.10185532  0.77780256  0.94362153  1.0
  Br  Br5  1  0.89814502  0.77780278  0.44362151  1.0
  Br  Br6  1  0.62285246  0.75745079  0.89782875  1.0
  Br  Br7  1  0.37714778  0.75745077  0.39782873  1.0
  Br  Br8  1  0.62285238  0.24254924  0.60217127  1.0
  Br  Br9  1  0.37714774  0.24254914  0.10217125  1.0
  Br  Br10  1  0.10185531  0.22219734  0.55637841  1.0
  Br  Br11  1  0.89814513  0.22219740  0.05637848  1.0
