# generated using pymatgen
data_MnSnF4
_symmetry_space_group_name_H-M   'P 1'
_cell_length_a   6.08787342
_cell_length_b   5.13132426
_cell_length_c   5.65547187
_cell_angle_alpha   86.32040458
_cell_angle_beta   90.00000087
_cell_angle_gamma   90.00001384
_symmetry_Int_Tables_number   1
_chemical_formula_structural   MnSnF4
_chemical_formula_sum   'Mn2 Sn2 F8'
_cell_volume   176.30625232
_cell_formula_units_Z   2
loop_
 _symmetry_equiv_pos_site_id
 _symmetry_equiv_pos_as_xyz
  1  'x, y, z'
loop_
 _atom_site_type_symbol
 _atom_site_label
 _atom_site_symmetry_multiplicity
 _atom_site_fract_x
 _atom_site_fract_y
 _atom_site_fract_z
 _atom_site_occupancy
  Mn  Mn0  1  0.83129891  0.00000006  0.74999989  1.0
  Mn  Mn1  1  0.16870108  0.99999993  0.25000011  1.0
  Sn  Sn2  1  0.29448236  0.50000007  0.74999979  1.0
  Sn  Sn3  1  0.70551764  0.49999992  0.25000022  1.0
  F  F4  1  0.06385258  0.23216427  0.52206705  1.0
  F  F5  1  0.93614726  0.23216418  0.02206715  1.0
  F  F6  1  0.58847008  0.25073959  0.60229073  1.0
  F  F7  1  0.41152992  0.25073982  0.10229078  1.0
  F  F8  1  0.58847009  0.74926019  0.89770924  1.0
  F  F9  1  0.41152991  0.74926039  0.39770927  1.0
  F  F10  1  0.06385275  0.76783583  0.97793284  1.0
  F  F11  1  0.93614742  0.76783575  0.47793293  1.0
