# generated using pymatgen
data_MnTlS2
_symmetry_space_group_name_H-M   'P 1'
_cell_length_a   7.47375527
_cell_length_b   7.47372006
_cell_length_c   14.78868318
_cell_angle_alpha   82.74405649
_cell_angle_beta   82.74419867
_cell_angle_gamma   89.96367526
_symmetry_Int_Tables_number   1
_chemical_formula_structural   MnTlS2
_chemical_formula_sum   'Mn8 Tl8 S16'
_cell_volume   812.77236768
_cell_formula_units_Z   8
loop_
 _symmetry_equiv_pos_site_id
 _symmetry_equiv_pos_as_xyz
  1  'x, y, z'
loop_
 _atom_site_type_symbol
 _atom_site_label
 _atom_site_symmetry_multiplicity
 _atom_site_fract_x
 _atom_site_fract_y
 _atom_site_fract_z
 _atom_site_occupancy
  Mn  Mn0  1  0.41715922  0.29013026  0.84328859  1.0
  Mn  Mn1  1  0.70986930  0.58284291  0.65671421  1.0
  Mn  Mn2  1  0.58284020  0.70987002  0.15671414  1.0
  Mn  Mn3  1  0.29012989  0.41715790  0.34328297  1.0
  Mn  Mn4  1  0.70898685  0.08745742  0.65984711  1.0
  Mn  Mn5  1  0.91254633  0.29101166  0.84015401  1.0
  Mn  Mn6  1  0.29101129  0.91254107  0.34015500  1.0
  Mn  Mn7  1  0.08745630  0.70898999  0.15984286  1.0
  Tl  Tl8  1  0.65459438  0.77661409  0.88402769  1.0
  Tl  Tl9  1  0.22338705  0.34540582  0.61597237  1.0
  Tl  Tl10  1  0.34540494  0.22338525  0.11597270  1.0
  Tl  Tl11  1  0.77661344  0.65459509  0.38402769  1.0
  Tl  Tl12  1  0.22723474  0.84637139  0.61248438  1.0
  Tl  Tl13  1  0.15362816  0.77276549  0.88751565  1.0
  Tl  Tl14  1  0.77276475  0.15362826  0.38751619  1.0
  Tl  Tl15  1  0.84637151  0.22723448  0.11248456  1.0
  S  S16  1  0.64479662  0.26844814  0.93395867  1.0
  S  S17  1  0.73155174  0.35520759  0.56604247  1.0
  S  S18  1  0.35520960  0.73155257  0.06604152  1.0
  S  S19  1  0.26844797  0.64478788  0.43395575  1.0
  S  S20  1  0.44030599  0.06241283  0.75300835  1.0
  S  S21  1  0.93758826  0.55969254  0.74699285  1.0
  S  S22  1  0.55968726  0.93758747  0.24699428  1.0
  S  S23  1  0.06240996  0.44031130  0.25300485  1.0
  S  S24  1  0.44004526  0.55995466  0.75000061  1.0
  S  S25  1  0.55995734  0.44004216  0.24999959  1.0
  S  S26  1  0.93538173  0.06461802  0.74999935  1.0
  S  S27  1  0.06462347  0.93537735  0.25000075  1.0
  S  S28  1  0.72711090  0.85961554  0.57132427  1.0
  S  S29  1  0.14038765  0.27288946  0.92867556  1.0
  S  S30  1  0.27288892  0.14039075  0.42867536  1.0
  S  S31  1  0.85960900  0.72711064  0.07132565  1.0
