# generated using pymatgen
data_MoAuS2
_symmetry_space_group_name_H-M   'P 1'
_cell_length_a   3.25407149
_cell_length_b   5.62016044
_cell_length_c   8.05363017
_cell_angle_alpha   76.28961045
_cell_angle_beta   89.99977780
_cell_angle_gamma   89.99939996
_symmetry_Int_Tables_number   1
_chemical_formula_structural   MoAuS2
_chemical_formula_sum   'Mo2 Au2 S4'
_cell_volume   143.09123884
_cell_formula_units_Z   2
loop_
 _symmetry_equiv_pos_site_id
 _symmetry_equiv_pos_as_xyz
  1  'x, y, z'
loop_
 _atom_site_type_symbol
 _atom_site_label
 _atom_site_symmetry_multiplicity
 _atom_site_fract_x
 _atom_site_fract_y
 _atom_site_fract_z
 _atom_site_occupancy
  Mo  Mo0  1  0.00000009  0.99999910  0.50000001  1.0
  Mo  Mo1  1  0.49999992  0.50000093  0.49999999  1.0
  Au  Au2  1  0.00000016  0.50000006  0.00000004  1.0
  Au  Au3  1  0.49999981  0.99999989  0.99999995  1.0
  S  S4  1  0.49999809  0.09861795  0.69786140  1.0
  S  S5  1  0.00000192  0.40139122  0.30219442  1.0
  S  S6  1  0.50000198  0.90138220  0.30213835  1.0
  S  S7  1  0.99999804  0.59860864  0.69780583  1.0
