# generated using pymatgen
data_MoClO
_symmetry_space_group_name_H-M   'P 1'
_cell_length_a   7.11188563
_cell_length_b   7.11190786
_cell_length_c   7.11188876
_cell_angle_alpha   59.99984812
_cell_angle_beta   59.99992593
_cell_angle_gamma   59.99968236
_symmetry_Int_Tables_number   1
_chemical_formula_structural   MoClO
_chemical_formula_sum   'Mo4 Cl4 O4'
_cell_volume   254.35428495
_cell_formula_units_Z   4
loop_
 _symmetry_equiv_pos_site_id
 _symmetry_equiv_pos_as_xyz
  1  'x, y, z'
loop_
 _atom_site_type_symbol
 _atom_site_label
 _atom_site_symmetry_multiplicity
 _atom_site_fract_x
 _atom_site_fract_y
 _atom_site_fract_z
 _atom_site_occupancy
  Mo  Mo0  1  0.36164816  0.36164481  0.36165135  1.0
  Mo  Mo1  1  0.36164660  0.36164756  0.91505482  1.0
  Mo  Mo2  1  0.36165371  0.91505563  0.36164670  1.0
  Mo  Mo3  1  0.91505211  0.36165170  0.36164706  1.0
  Cl  Cl4  1  0.62225307  0.62224946  0.62224850  1.0
  Cl  Cl5  1  0.62225389  0.62224905  0.13324870  1.0
  Cl  Cl6  1  0.62225107  0.13324901  0.62224982  1.0
  Cl  Cl7  1  0.13324707  0.62224859  0.62225252  1.0
  O  O8  1  0.15444588  0.15445338  0.15445345  1.0
  O  O9  1  0.15444505  0.15445239  0.53664915  1.0
  O  O10  1  0.15444645  0.53664786  0.15445232  1.0
  O  O11  1  0.53665695  0.15445057  0.15444560  1.0
