# generated using pymatgen
data_MoHCl
_symmetry_space_group_name_H-M   'P 1'
_cell_length_a   6.57062178
_cell_length_b   6.57057711
_cell_length_c   6.57063303
_cell_angle_alpha   59.99992797
_cell_angle_beta   60.00016472
_cell_angle_gamma   59.99983354
_symmetry_Int_Tables_number   1
_chemical_formula_structural   MoHCl
_chemical_formula_sum   'Mo4 H4 Cl4'
_cell_volume   200.58661887
_cell_formula_units_Z   4
loop_
 _symmetry_equiv_pos_site_id
 _symmetry_equiv_pos_as_xyz
  1  'x, y, z'
loop_
 _atom_site_type_symbol
 _atom_site_label
 _atom_site_symmetry_multiplicity
 _atom_site_fract_x
 _atom_site_fract_y
 _atom_site_fract_z
 _atom_site_occupancy
  Mo  Mo0  1  0.35106522  0.35106653  0.35106437  1.0
  Mo  Mo1  1  0.35106369  0.35106487  0.94680712  1.0
  Mo  Mo2  1  0.35106560  0.94680382  0.35106454  1.0
  Mo  Mo3  1  0.94680502  0.35106594  0.35106375  1.0
  H  H4  1  0.14356831  0.14356702  0.14357043  1.0
  H  H5  1  0.14357131  0.14356977  0.56928752  1.0
  H  H6  1  0.14356752  0.56929567  0.14356931  1.0
  H  H7  1  0.56929474  0.14356717  0.14357006  1.0
  Cl  Cl8  1  0.62506504  0.62506446  0.62506782  1.0
  Cl  Cl9  1  0.62506668  0.62506667  0.12479971  1.0
  Cl  Cl10  1  0.62506432  0.12480358  0.62506758  1.0
  Cl  Cl11  1  0.12480254  0.62506449  0.62506779  1.0
