# generated using pymatgen
data_MoICl
_symmetry_space_group_name_H-M   'P 1'
_cell_length_a   7.61669040
_cell_length_b   7.61699927
_cell_length_c   7.61719850
_cell_angle_alpha   59.99944404
_cell_angle_beta   59.99805620
_cell_angle_gamma   59.99721281
_symmetry_Int_Tables_number   1
_chemical_formula_structural   MoICl
_chemical_formula_sum   'Mo4 I4 Cl4'
_cell_volume   312.47346169
_cell_formula_units_Z   4
loop_
 _symmetry_equiv_pos_site_id
 _symmetry_equiv_pos_as_xyz
  1  'x, y, z'
loop_
 _atom_site_type_symbol
 _atom_site_label
 _atom_site_symmetry_multiplicity
 _atom_site_fract_x
 _atom_site_fract_y
 _atom_site_fract_z
 _atom_site_occupancy
  Mo  Mo0  1  0.35094930  0.35094942  0.35095352  1.0
  Mo  Mo1  1  0.35094759  0.35094803  0.94715048  1.0
  Mo  Mo2  1  0.35094523  0.94715561  0.35094874  1.0
  Mo  Mo3  1  0.94716868  0.35094109  0.35094398  1.0
  I  I4  1  0.11365913  0.11366359  0.11366809  1.0
  I  I5  1  0.11365868  0.11366297  0.65901235  1.0
  I  I6  1  0.11365678  0.65901287  0.11366585  1.0
  I  I7  1  0.65902458  0.11365578  0.11366068  1.0
  Cl  Cl8  1  0.60700690  0.60701440  0.60701095  1.0
  Cl  Cl9  1  0.60700640  0.60701378  0.17896725  1.0
  Cl  Cl10  1  0.60700595  0.17897134  0.60701017  1.0
  Cl  Cl11  1  0.17897078  0.60701114  0.60700794  1.0
