# generated using pymatgen
data_MoPdCl4
_symmetry_space_group_name_H-M   'P 1'
_cell_length_a   6.02142194
_cell_length_b   6.20636163
_cell_length_c   7.50550680
_cell_angle_alpha   90.00001679
_cell_angle_beta   90.00003072
_cell_angle_gamma   81.72574002
_symmetry_Int_Tables_number   1
_chemical_formula_structural   MoPdCl4
_chemical_formula_sum   'Mo2 Pd2 Cl8'
_cell_volume   277.56946999
_cell_formula_units_Z   2
loop_
 _symmetry_equiv_pos_site_id
 _symmetry_equiv_pos_as_xyz
  1  'x, y, z'
loop_
 _atom_site_type_symbol
 _atom_site_label
 _atom_site_symmetry_multiplicity
 _atom_site_fract_x
 _atom_site_fract_y
 _atom_site_fract_z
 _atom_site_occupancy
  Mo  Mo0  1  0.00000004  0.25000006  0.13614044  1.0
  Mo  Mo1  1  0.99999999  0.74999995  0.86385985  1.0
  Pd  Pd2  1  0.49999998  0.24999996  0.68433644  1.0
  Pd  Pd3  1  0.49999994  0.74999996  0.31566468  1.0
  Cl  Cl4  1  0.75848391  0.42511851  0.36016143  1.0
  Cl  Cl5  1  0.24151623  0.07488159  0.36016151  1.0
  Cl  Cl6  1  0.24151595  0.57488225  0.63983630  1.0
  Cl  Cl7  1  0.75848393  0.92511767  0.63983617  1.0
  Cl  Cl8  1  0.77126376  0.95264487  0.10558951  1.0
  Cl  Cl9  1  0.22873633  0.54735522  0.10558958  1.0
  Cl  Cl10  1  0.22873453  0.04735573  0.89441207  1.0
  Cl  Cl11  1  0.77126542  0.45264423  0.89441201  1.0
