# generated using pymatgen
data_MoPSe4
_symmetry_space_group_name_H-M   'P 1'
_cell_length_a   5.45553192
_cell_length_b   6.42167541
_cell_length_c   7.42700661
_cell_angle_alpha   89.99961189
_cell_angle_beta   90.00010430
_cell_angle_gamma   90.57134181
_symmetry_Int_Tables_number   1
_chemical_formula_structural   MoPSe4
_chemical_formula_sum   'Mo2 P2 Se8'
_cell_volume   260.18225221
_cell_formula_units_Z   2
loop_
 _symmetry_equiv_pos_site_id
 _symmetry_equiv_pos_as_xyz
  1  'x, y, z'
loop_
 _atom_site_type_symbol
 _atom_site_label
 _atom_site_symmetry_multiplicity
 _atom_site_fract_x
 _atom_site_fract_y
 _atom_site_fract_z
 _atom_site_occupancy
  Mo  Mo0  1  0.00000319  0.25000431  0.14922256  1.0
  Mo  Mo1  1  0.99999679  0.74999584  0.85071619  1.0
  P  P2  1  0.49998985  0.25000300  0.65082281  1.0
  P  P3  1  0.50001017  0.74999704  0.34919029  1.0
  Se  Se4  1  0.77466865  0.42583724  0.38807210  1.0
  Se  Se5  1  0.22532954  0.07416635  0.38807272  1.0
  Se  Se6  1  0.22535685  0.57414741  0.61190311  1.0
  Se  Se7  1  0.77464502  0.92584895  0.61190252  1.0
  Se  Se8  1  0.73215057  0.93190304  0.09603610  1.0
  Se  Se9  1  0.26785613  0.56809578  0.09603541  1.0
  Se  Se10  1  0.26785097  0.06819105  0.90401274  1.0
  Se  Se11  1  0.73214228  0.43181001  0.90401346  1.0
