# generated using pymatgen
data_Na8PCl5
_symmetry_space_group_name_H-M   'P 1'
_cell_length_a   8.68575995
_cell_length_b   8.68575994
_cell_length_c   10.33975681
_cell_angle_alpha   69.76453540
_cell_angle_beta   69.76453611
_cell_angle_gamma   27.35659088
_symmetry_Int_Tables_number   1
_chemical_formula_structural   Na8PCl5
_chemical_formula_sum   'Na8 P1 Cl5'
_cell_volume   334.97641968
_cell_formula_units_Z   1
loop_
 _symmetry_equiv_pos_site_id
 _symmetry_equiv_pos_as_xyz
  1  'x, y, z'
loop_
 _atom_site_type_symbol
 _atom_site_label
 _atom_site_symmetry_multiplicity
 _atom_site_fract_x
 _atom_site_fract_y
 _atom_site_fract_z
 _atom_site_occupancy
  Na  Na0  1  0.51641126  0.51641125  0.80013874  1.0
  Na  Na1  1  0.48358875  0.48358876  0.19986097  1.0
  Na  Na2  1  0.09624959  0.09624962  0.30533768  1.0
  Na  Na3  1  0.90375023  0.90375025  0.69466250  1.0
  Na  Na4  1  0.13663297  0.13663294  0.54824403  1.0
  Na  Na5  1  0.86336727  0.86336721  0.45175589  1.0
  Na  Na6  1  0.18314107  0.18314112  0.90064305  1.0
  Na  Na7  1  0.81685889  0.81685884  0.09935705  1.0
  P  P8  1  0.49999995  0.49999997  0.50000004  1.0
  Cl  Cl9  1  0.00000001  0.00000001  0.99999993  1.0
  Cl  Cl10  1  0.34366230  0.34366232  0.90188585  1.0
  Cl  Cl11  1  0.65633766  0.65633767  0.09811426  1.0
  Cl  Cl12  1  0.30138898  0.30138896  0.30730078  1.0
  Cl  Cl13  1  0.69861109  0.69861107  0.69269924  1.0
