# generated using pymatgen
data_Na8ZnSe5
_symmetry_space_group_name_H-M   'P 1'
_cell_length_a   5.11306437
_cell_length_b   5.11305548
_cell_length_c   16.61372955
_cell_angle_alpha   79.40582783
_cell_angle_beta   79.40593404
_cell_angle_gamma   58.06040957
_symmetry_Int_Tables_number   1
_chemical_formula_structural   Na8ZnSe5
_chemical_formula_sum   'Na8 Zn1 Se5'
_cell_volume   360.34280317
_cell_formula_units_Z   1
loop_
 _symmetry_equiv_pos_site_id
 _symmetry_equiv_pos_as_xyz
  1  'x, y, z'
loop_
 _atom_site_type_symbol
 _atom_site_label
 _atom_site_symmetry_multiplicity
 _atom_site_fract_x
 _atom_site_fract_y
 _atom_site_fract_z
 _atom_site_occupancy
  Na  Na0  1  0.13984169  0.13984226  0.56854396  1.0
  Na  Na1  1  0.42476731  0.42476811  0.68834976  1.0
  Na  Na2  1  0.14566867  0.14566787  0.03935936  1.0
  Na  Na3  1  0.31530561  0.31530557  0.18531295  1.0
  Na  Na4  1  0.57523117  0.57523038  0.31165059  1.0
  Na  Na5  1  0.68469352  0.68469356  0.81468728  1.0
  Na  Na6  1  0.86015800  0.86015743  0.43145589  1.0
  Na  Na7  1  0.85433487  0.85433567  0.96063968  1.0
  Zn  Zn8  1  0.50000019  0.50000017  0.50000025  1.0
  Se  Se9  1  0.21886648  0.21886622  0.37030776  1.0
  Se  Se10  1  0.35205442  0.35205581  0.86553904  1.0
  Se  Se11  1  0.50000076  0.50000076  0.00000081  1.0
  Se  Se12  1  0.78113225  0.78113250  0.62969176  1.0
  Se  Se13  1  0.64794507  0.64794368  0.13446092  1.0
