# generated using pymatgen
data_NaAuCl2
_symmetry_space_group_name_H-M   'P 1'
_cell_length_a   4.05724148
_cell_length_b   4.05723355
_cell_length_c   6.48328941
_cell_angle_alpha   90.00061801
_cell_angle_beta   89.99953643
_cell_angle_gamma   120.00071592
_symmetry_Int_Tables_number   1
_chemical_formula_structural   NaAuCl2
_chemical_formula_sum   'Na1 Au1 Cl2'
_cell_volume   92.42378973
_cell_formula_units_Z   1
loop_
 _symmetry_equiv_pos_site_id
 _symmetry_equiv_pos_as_xyz
  1  'x, y, z'
loop_
 _atom_site_type_symbol
 _atom_site_label
 _atom_site_symmetry_multiplicity
 _atom_site_fract_x
 _atom_site_fract_y
 _atom_site_fract_z
 _atom_site_occupancy
  Na  Na0  1  0.00000002  0.00000002  0.50000001  1.0
  Au  Au1  1  0.99999997  0.99999996  0.00000002  1.0
  Cl  Cl2  1  0.33333333  0.66666667  0.24037719  1.0
  Cl  Cl3  1  0.66666667  0.33333333  0.75962277  1.0
