# generated using pymatgen
data_NaAuCl2
_symmetry_space_group_name_H-M   'P 1'
_cell_length_a   4.33465169
_cell_length_b   7.51336923
_cell_length_c   7.72133986
_cell_angle_alpha   71.33297986
_cell_angle_beta   89.99999760
_cell_angle_gamma   89.99999481
_symmetry_Int_Tables_number   1
_chemical_formula_structural   NaAuCl2
_chemical_formula_sum   'Na2 Au2 Cl4'
_cell_volume   238.23882709
_cell_formula_units_Z   2
loop_
 _symmetry_equiv_pos_site_id
 _symmetry_equiv_pos_as_xyz
  1  'x, y, z'
loop_
 _atom_site_type_symbol
 _atom_site_label
 _atom_site_symmetry_multiplicity
 _atom_site_fract_x
 _atom_site_fract_y
 _atom_site_fract_z
 _atom_site_occupancy
  Na  Na0  1  0.00000000  0.00000000  0.50000000  1.0
  Na  Na1  1  0.50000001  0.50000001  0.50000001  1.0
  Au  Au2  1  0.00000000  0.50000008  0.99999976  1.0
  Au  Au3  1  0.50000000  0.00000003  0.99999988  1.0
  Cl  Cl4  1  0.49999998  0.10325062  0.68718265  1.0
  Cl  Cl5  1  0.00000008  0.39513160  0.31286526  1.0
  Cl  Cl6  1  0.50000002  0.89674934  0.31281746  1.0
  Cl  Cl7  1  0.99999992  0.60486832  0.68713499  1.0
