# generated using pymatgen
data_NaGdF4
_symmetry_space_group_name_H-M   'P 1'
_cell_length_a   5.65545628
_cell_length_b   5.50819388
_cell_length_c   5.51013231
_cell_angle_alpha   89.99999804
_cell_angle_beta   90.00001476
_cell_angle_gamma   92.59845084
_symmetry_Int_Tables_number   1
_chemical_formula_structural   NaGdF4
_chemical_formula_sum   'Na2 Gd2 F8'
_cell_volume   171.47156909
_cell_formula_units_Z   2
loop_
 _symmetry_equiv_pos_site_id
 _symmetry_equiv_pos_as_xyz
  1  'x, y, z'
loop_
 _atom_site_type_symbol
 _atom_site_label
 _atom_site_symmetry_multiplicity
 _atom_site_fract_x
 _atom_site_fract_y
 _atom_site_fract_z
 _atom_site_occupancy
  Na  Na0  1  0.50000001  0.24999988  0.72847408  1.0
  Na  Na1  1  0.49999999  0.75000012  0.27152592  1.0
  Gd  Gd2  1  0.99999998  0.74999999  0.75239734  1.0
  Gd  Gd3  1  0.00000002  0.25000001  0.24760266  1.0
  F  F4  1  0.77250674  0.02152989  0.53509036  1.0
  F  F5  1  0.22749321  0.47847005  0.53509064  1.0
  F  F6  1  0.22749326  0.97847011  0.46490964  1.0
  F  F7  1  0.77250679  0.52152995  0.46490936  1.0
  F  F8  1  0.22405981  0.54885106  0.03864792  1.0
  F  F9  1  0.77594016  0.95114898  0.03864777  1.0
  F  F10  1  0.77594018  0.45114893  0.96135208  1.0
  F  F11  1  0.22405985  0.04885102  0.96135223  1.0
