# generated using pymatgen
data_NaMoBr4
_symmetry_space_group_name_H-M   'P 1'
_cell_length_a   6.64764770
_cell_length_b   6.88765994
_cell_length_c   7.95380930
_cell_angle_alpha   89.99999968
_cell_angle_beta   90.00000078
_cell_angle_gamma   94.27218398
_symmetry_Int_Tables_number   1
_chemical_formula_structural   NaMoBr4
_chemical_formula_sum   'Na2 Mo2 Br8'
_cell_volume   363.16707106
_cell_formula_units_Z   2
loop_
 _symmetry_equiv_pos_site_id
 _symmetry_equiv_pos_as_xyz
  1  'x, y, z'
loop_
 _atom_site_type_symbol
 _atom_site_label
 _atom_site_symmetry_multiplicity
 _atom_site_fract_x
 _atom_site_fract_y
 _atom_site_fract_z
 _atom_site_occupancy
  Na  Na0  1  0.50000003  0.24999993  0.35956540  1.0
  Na  Na1  1  0.49999996  0.75000005  0.64043425  1.0
  Mo  Mo2  1  0.00000001  0.25000001  0.87125792  1.0
  Mo  Mo3  1  0.00000001  0.74999999  0.12874175  1.0
  Br  Br4  1  0.23515711  0.40141187  0.64270537  1.0
  Br  Br5  1  0.76484283  0.09858816  0.64270541  1.0
  Br  Br6  1  0.78322699  0.05395339  0.10509221  1.0
  Br  Br7  1  0.21677302  0.44604661  0.10509220  1.0
  Br  Br8  1  0.21677304  0.94604663  0.89490745  1.0
  Br  Br9  1  0.78322697  0.55395339  0.89490743  1.0
  Br  Br10  1  0.23515722  0.90141187  0.35729429  1.0
  Br  Br11  1  0.76484282  0.59858811  0.35729431  1.0
