# generated using pymatgen
data_NaMoF4
_symmetry_space_group_name_H-M   'P 1'
_cell_length_a   5.06604609
_cell_length_b   5.70570231
_cell_length_c   6.17762474
_cell_angle_alpha   90.00000274
_cell_angle_beta   90.00000348
_cell_angle_gamma   91.78487282
_symmetry_Int_Tables_number   1
_chemical_formula_structural   NaMoF4
_chemical_formula_sum   'Na2 Mo2 F8'
_cell_volume   178.47977360
_cell_formula_units_Z   2
loop_
 _symmetry_equiv_pos_site_id
 _symmetry_equiv_pos_as_xyz
  1  'x, y, z'
loop_
 _atom_site_type_symbol
 _atom_site_label
 _atom_site_symmetry_multiplicity
 _atom_site_fract_x
 _atom_site_fract_y
 _atom_site_fract_z
 _atom_site_occupancy
  Na  Na0  1  0.50000000  0.24999999  0.36187855  1.0
  Na  Na1  1  0.50000000  0.75000002  0.63812111  1.0
  Mo  Mo2  1  0.00000000  0.25000000  0.85483770  1.0
  Mo  Mo3  1  0.99999999  0.75000000  0.14516199  1.0
  F  F4  1  0.24828061  0.40882291  0.63515861  1.0
  F  F5  1  0.75171946  0.09117707  0.63515849  1.0
  F  F6  1  0.78585733  0.06504841  0.10939339  1.0
  F  F7  1  0.21414263  0.43495159  0.10939346  1.0
  F  F8  1  0.21414273  0.93495160  0.89060619  1.0
  F  F9  1  0.78585732  0.56504840  0.89060612  1.0
  F  F10  1  0.24828058  0.90882297  0.36484126  1.0
  F  F11  1  0.75171936  0.59117705  0.36484115  1.0
