# generated using pymatgen
data_NaRhBr4
_symmetry_space_group_name_H-M   'P 1'
_cell_length_a   6.91675741
_cell_length_b   9.42401878
_cell_length_c   10.20723934
_cell_angle_alpha   80.06672255
_cell_angle_beta   89.99975954
_cell_angle_gamma   90.00038755
_symmetry_Int_Tables_number   1
_chemical_formula_structural   NaRhBr4
_chemical_formula_sum   'Na4 Rh4 Br16'
_cell_volume   655.37114718
_cell_formula_units_Z   4
loop_
 _symmetry_equiv_pos_site_id
 _symmetry_equiv_pos_as_xyz
  1  'x, y, z'
loop_
 _atom_site_type_symbol
 _atom_site_label
 _atom_site_symmetry_multiplicity
 _atom_site_fract_x
 _atom_site_fract_y
 _atom_site_fract_z
 _atom_site_occupancy
  Na  Na0  1  0.20998573  0.88892092  0.35433276  1.0
  Na  Na1  1  0.70998419  0.61108199  0.64566766  1.0
  Na  Na2  1  0.79001721  0.11107960  0.64566443  1.0
  Na  Na3  1  0.29002208  0.38892206  0.35433194  1.0
  Rh  Rh4  1  0.73945677  0.70393027  0.16170448  1.0
  Rh  Rh5  1  0.23946211  0.79606949  0.83829623  1.0
  Rh  Rh6  1  0.26053737  0.29606817  0.83830073  1.0
  Rh  Rh7  1  0.76053698  0.20392828  0.16170295  1.0
  Br  Br8  1  0.48235717  0.12291666  0.30815673  1.0
  Br  Br9  1  0.98234589  0.37708436  0.69184196  1.0
  Br  Br10  1  0.51764568  0.87708286  0.69184473  1.0
  Br  Br11  1  0.01765068  0.62291551  0.30815719  1.0
  Br  Br12  1  0.95335465  0.19206503  0.37296940  1.0
  Br  Br13  1  0.45334864  0.30793079  0.62703087  1.0
  Br  Br14  1  0.04664945  0.80793459  0.62703039  1.0
  Br  Br15  1  0.54664962  0.69206622  0.37296972  1.0
  Br  Br16  1  0.88237207  0.95353602  0.15558278  1.0
  Br  Br17  1  0.38236845  0.54646685  0.84441663  1.0
  Br  Br18  1  0.11762531  0.04646856  0.84441709  1.0
  Br  Br19  1  0.61762986  0.45352931  0.15558265  1.0
  Br  Br20  1  0.41794419  0.80652417  0.05390194  1.0
  Br  Br21  1  0.91794444  0.69347805  0.94609639  1.0
  Br  Br22  1  0.58205649  0.19347861  0.94609807  1.0
  Br  Br23  1  0.08205499  0.30652163  0.05390226  1.0
