# generated using pymatgen
data_NaRhBr4
_symmetry_space_group_name_H-M   'P 1'
_cell_length_a   6.57520543
_cell_length_b   6.65312541
_cell_length_c   7.81135355
_cell_angle_alpha   89.99999334
_cell_angle_beta   90.00000888
_cell_angle_gamma   85.85129826
_symmetry_Int_Tables_number   1
_chemical_formula_structural   NaRhBr4
_chemical_formula_sum   'Na2 Rh2 Br8'
_cell_volume   340.81745840
_cell_formula_units_Z   2
loop_
 _symmetry_equiv_pos_site_id
 _symmetry_equiv_pos_as_xyz
  1  'x, y, z'
loop_
 _atom_site_type_symbol
 _atom_site_label
 _atom_site_symmetry_multiplicity
 _atom_site_fract_x
 _atom_site_fract_y
 _atom_site_fract_z
 _atom_site_occupancy
  Na  Na0  1  0.00000006  0.25000001  0.85988718  1.0
  Na  Na1  1  0.99999993  0.75000001  0.14011335  1.0
  Rh  Rh2  1  0.49999999  0.25000002  0.38190748  1.0
  Rh  Rh3  1  0.50000003  0.74999998  0.61809194  1.0
  Br  Br4  1  0.29105728  0.44918125  0.60315229  1.0
  Br  Br5  1  0.70894274  0.05081873  0.60315229  1.0
  Br  Br6  1  0.72337123  0.09680406  0.14907327  1.0
  Br  Br7  1  0.27662878  0.40319601  0.14907330  1.0
  Br  Br8  1  0.27662943  0.90319504  0.85092553  1.0
  Br  Br9  1  0.72337052  0.59680490  0.85092555  1.0
  Br  Br10  1  0.29105733  0.94918039  0.39684790  1.0
  Br  Br11  1  0.70894269  0.55081960  0.39684793  1.0
