# generated using pymatgen
data_NaSbF4
_symmetry_space_group_name_H-M   'P 1'
_cell_length_a   5.00607936
_cell_length_b   5.91747668
_cell_length_c   6.80641607
_cell_angle_alpha   90.00028754
_cell_angle_beta   90.00038874
_cell_angle_gamma   92.41359298
_symmetry_Int_Tables_number   1
_chemical_formula_structural   NaSbF4
_chemical_formula_sum   'Na2 Sb2 F8'
_cell_volume   201.45002747
_cell_formula_units_Z   2
loop_
 _symmetry_equiv_pos_site_id
 _symmetry_equiv_pos_as_xyz
  1  'x, y, z'
loop_
 _atom_site_type_symbol
 _atom_site_label
 _atom_site_symmetry_multiplicity
 _atom_site_fract_x
 _atom_site_fract_y
 _atom_site_fract_z
 _atom_site_occupancy
  Na  Na0  1  0.49999986  0.24999961  0.37518218  1.0
  Na  Na1  1  0.50000015  0.75000037  0.62481755  1.0
  Sb  Sb2  1  0.99999700  0.24999775  0.83554621  1.0
  Sb  Sb3  1  0.00000298  0.75000227  0.16445177  1.0
  F  F4  1  0.23470408  0.39563371  0.63134755  1.0
  F  F5  1  0.76529853  0.10436844  0.63134984  1.0
  F  F6  1  0.75916927  0.03319019  0.18624083  1.0
  F  F7  1  0.24083094  0.46680895  0.18624113  1.0
  F  F8  1  0.24083023  0.96681041  0.81375896  1.0
  F  F9  1  0.75916959  0.53319043  0.81375868  1.0
  F  F10  1  0.23470212  0.89563199  0.36865053  1.0
  F  F11  1  0.76529524  0.60436587  0.36865277  1.0
