# generated using pymatgen
data_NaTaAs2
_symmetry_space_group_name_H-M   'P 1'
_cell_length_a   4.69647691
_cell_length_b   4.69647615
_cell_length_c   4.69647641
_cell_angle_alpha   59.99999658
_cell_angle_beta   59.99998342
_cell_angle_gamma   59.99999140
_symmetry_Int_Tables_number   1
_chemical_formula_structural   NaTaAs2
_chemical_formula_sum   'Na1 Ta1 As2'
_cell_volume   73.24894370
_cell_formula_units_Z   1
loop_
 _symmetry_equiv_pos_site_id
 _symmetry_equiv_pos_as_xyz
  1  'x, y, z'
loop_
 _atom_site_type_symbol
 _atom_site_label
 _atom_site_symmetry_multiplicity
 _atom_site_fract_x
 _atom_site_fract_y
 _atom_site_fract_z
 _atom_site_occupancy
  Na  Na0  1  0.25000008  0.25000007  0.25000008  1.0
  Ta  Ta1  1  0.75000098  0.75000099  0.75000097  1.0
  As  As2  1  0.50000093  0.50000092  0.50000094  1.0
  As  As3  1  0.00000001  0.00000001  0.00000001  1.0
