# generated using pymatgen
data_NaTmS2
_symmetry_space_group_name_H-M   'P 1'
_cell_length_a   3.89145386
_cell_length_b   3.89149412
_cell_length_c   6.94915361
_cell_angle_alpha   89.99935906
_cell_angle_beta   90.00072401
_cell_angle_gamma   120.00002533
_symmetry_Int_Tables_number   1
_chemical_formula_structural   NaTmS2
_chemical_formula_sum   'Na1 Tm1 S2'
_cell_volume   91.13615390
_cell_formula_units_Z   1
loop_
 _symmetry_equiv_pos_site_id
 _symmetry_equiv_pos_as_xyz
  1  'x, y, z'
loop_
 _atom_site_type_symbol
 _atom_site_label
 _atom_site_symmetry_multiplicity
 _atom_site_fract_x
 _atom_site_fract_y
 _atom_site_fract_z
 _atom_site_occupancy
  Na  Na0  1  0.99999984  0.99999993  0.50000001  1.0
  Tm  Tm1  1  0.00000018  0.00000008  0.99999997  1.0
  S  S2  1  0.33333333  0.66666667  0.22002877  1.0
  S  S3  1  0.66666667  0.33333333  0.77997125  1.0
