# generated using pymatgen
data_NaY5Te8
_symmetry_space_group_name_H-M   'P 1'
_cell_length_a   11.67388475
_cell_length_b   11.67388467
_cell_length_c   10.53500894
_cell_angle_alpha   75.13330484
_cell_angle_beta   75.13330472
_cell_angle_gamma   21.66928242
_symmetry_Int_Tables_number   1
_chemical_formula_structural   NaY5Te8
_chemical_formula_sum   'Na1 Y5 Te8'
_cell_volume   511.72494241
_cell_formula_units_Z   1
loop_
 _symmetry_equiv_pos_site_id
 _symmetry_equiv_pos_as_xyz
  1  'x, y, z'
loop_
 _atom_site_type_symbol
 _atom_site_label
 _atom_site_symmetry_multiplicity
 _atom_site_fract_x
 _atom_site_fract_y
 _atom_site_fract_z
 _atom_site_occupancy
  Na  Na0  1  0.50000001  0.49999999  0.50000000  1.0
  Y  Y1  1  0.00000000  0.00000000  0.00000000  1.0
  Y  Y2  1  0.34798826  0.34798824  0.95294900  1.0
  Y  Y3  1  0.65201174  0.65201177  0.04705100  1.0
  Y  Y4  1  0.29517286  0.29517288  0.34426795  1.0
  Y  Y5  1  0.70482714  0.70482712  0.65573205  1.0
  Te  Te6  1  0.57763771  0.57763772  0.84177285  1.0
  Te  Te7  1  0.42236230  0.42236228  0.15822714  1.0
  Te  Te8  1  0.07502475  0.07502478  0.21022349  1.0
  Te  Te9  1  0.92497524  0.92497523  0.78977651  1.0
  Te  Te10  1  0.16490845  0.16490840  0.49980835  1.0
  Te  Te11  1  0.83509155  0.83509159  0.50019165  1.0
  Te  Te12  1  0.23126108  0.23126111  0.85432960  1.0
  Te  Te13  1  0.76873891  0.76873890  0.14567040  1.0
