# generated using pymatgen
data_NbRhO4
_symmetry_space_group_name_H-M   'P 1'
_cell_length_a   4.98941407
_cell_length_b   4.99889921
_cell_length_c   5.02923476
_cell_angle_alpha   89.43781756
_cell_angle_beta   89.99998324
_cell_angle_gamma   90.00001632
_symmetry_Int_Tables_number   1
_chemical_formula_structural   NbRhO4
_chemical_formula_sum   'Nb2 Rh2 O8'
_cell_volume   125.43101319
_cell_formula_units_Z   2
loop_
 _symmetry_equiv_pos_site_id
 _symmetry_equiv_pos_as_xyz
  1  'x, y, z'
loop_
 _atom_site_type_symbol
 _atom_site_label
 _atom_site_symmetry_multiplicity
 _atom_site_fract_x
 _atom_site_fract_y
 _atom_site_fract_z
 _atom_site_occupancy
  Nb  Nb0  1  0.50000018  0.99999969  0.50000000  1.0
  Nb  Nb1  1  0.99999975  0.49999960  0.50000021  1.0
  Rh  Rh2  1  0.49999995  0.50000007  0.00000000  1.0
  Rh  Rh3  1  0.00000003  0.00000007  0.00000003  1.0
  O  O4  1  0.83850444  0.66306176  0.83469018  1.0
  O  O5  1  0.33850342  0.83694024  0.16531025  1.0
  O  O6  1  0.15357192  0.15041510  0.65700767  1.0
  O  O7  1  0.65357251  0.34958449  0.34299315  1.0
  O  O8  1  0.16149557  0.33693845  0.16530983  1.0
  O  O9  1  0.66149666  0.16306002  0.83468964  1.0
  O  O10  1  0.84642813  0.84958492  0.34299232  1.0
  O  O11  1  0.34642743  0.65041559  0.65700672  1.0
