# generated using pymatgen
data_NbS2F
_symmetry_space_group_name_H-M   'P 1'
_cell_length_a   6.06553660
_cell_length_b   6.06563091
_cell_length_c   6.25079667
_cell_angle_alpha   59.09163656
_cell_angle_beta   59.09091529
_cell_angle_gamma   62.06590732
_symmetry_Int_Tables_number   1
_chemical_formula_structural   NbS2F
_chemical_formula_sum   'Nb2 S4 F2'
_cell_volume   162.62401856
_cell_formula_units_Z   2
loop_
 _symmetry_equiv_pos_site_id
 _symmetry_equiv_pos_as_xyz
  1  'x, y, z'
loop_
 _atom_site_type_symbol
 _atom_site_label
 _atom_site_symmetry_multiplicity
 _atom_site_fract_x
 _atom_site_fract_y
 _atom_site_fract_z
 _atom_site_occupancy
  Nb  Nb0  1  0.00000180  0.50000184  0.99999895  1.0
  Nb  Nb1  1  0.50000252  0.00000033  0.50000000  1.0
  S  S2  1  0.64139575  0.86208833  0.85867090  1.0
  S  S3  1  0.13789697  0.35859413  0.64133851  1.0
  S  S4  1  0.86209880  0.64140425  0.35866282  1.0
  S  S5  1  0.35860155  0.13791087  0.14132906  1.0
  F  F6  1  0.25236519  0.74761645  0.75000441  1.0
  F  F7  1  0.74763643  0.25238380  0.24999535  1.0
