# generated using pymatgen
data_NdCrP2
_symmetry_space_group_name_H-M   'P 1'
_cell_length_a   4.61534515
_cell_length_b   4.61534721
_cell_length_c   4.61534965
_cell_angle_alpha   60.00000065
_cell_angle_beta   60.00005218
_cell_angle_gamma   60.00011577
_symmetry_Int_Tables_number   1
_chemical_formula_structural   NdCrP2
_chemical_formula_sum   'Nd1 Cr1 P2'
_cell_volume   69.51823324
_cell_formula_units_Z   1
loop_
 _symmetry_equiv_pos_site_id
 _symmetry_equiv_pos_as_xyz
  1  'x, y, z'
loop_
 _atom_site_type_symbol
 _atom_site_label
 _atom_site_symmetry_multiplicity
 _atom_site_fract_x
 _atom_site_fract_y
 _atom_site_fract_z
 _atom_site_occupancy
  Nd  Nd0  1  0.00000000  0.00000000  0.00000000  1.0
  Cr  Cr1  1  0.50000000  0.50000000  0.50000000  1.0
  P  P2  1  0.74999989  0.74999991  0.74999997  1.0
  P  P3  1  0.25000011  0.25000009  0.25000003  1.0
