# generated using pymatgen
data_NdGaP2
_symmetry_space_group_name_H-M   'P 1'
_cell_length_a   4.89109304
_cell_length_b   4.89109308
_cell_length_c   4.89109293
_cell_angle_alpha   59.99996109
_cell_angle_beta   59.99995974
_cell_angle_gamma   59.99996099
_symmetry_Int_Tables_number   1
_chemical_formula_structural   NdGaP2
_chemical_formula_sum   'Nd1 Ga1 P2'
_cell_volume   82.73749744
_cell_formula_units_Z   1
loop_
 _symmetry_equiv_pos_site_id
 _symmetry_equiv_pos_as_xyz
  1  'x, y, z'
loop_
 _atom_site_type_symbol
 _atom_site_label
 _atom_site_symmetry_multiplicity
 _atom_site_fract_x
 _atom_site_fract_y
 _atom_site_fract_z
 _atom_site_occupancy
  Nd  Nd0  1  0.50000000  0.50000001  0.49999999  1.0
  Ga  Ga1  1  0.00000000  0.00000000  0.00000000  1.0
  P  P2  1  0.74999996  0.74999995  0.74999999  1.0
  P  P3  1  0.25000003  0.25000004  0.25000001  1.0
