# generated using pymatgen
data_NdH2Cl
_symmetry_space_group_name_H-M   'P 1'
_cell_length_a   3.52376122
_cell_length_b   8.21921986
_cell_length_c   8.13545411
_cell_angle_alpha   73.46870180
_cell_angle_beta   89.99977761
_cell_angle_gamma   89.99980476
_symmetry_Int_Tables_number   1
_chemical_formula_structural   NdH2Cl
_chemical_formula_sum   'Nd2 H4 Cl2'
_cell_volume   225.88401076
_cell_formula_units_Z   2
loop_
 _symmetry_equiv_pos_site_id
 _symmetry_equiv_pos_as_xyz
  1  'x, y, z'
loop_
 _atom_site_type_symbol
 _atom_site_label
 _atom_site_symmetry_multiplicity
 _atom_site_fract_x
 _atom_site_fract_y
 _atom_site_fract_z
 _atom_site_occupancy
  Nd  Nd0  1  0.99999923  0.83387114  0.31323238  1.0
  Nd  Nd1  1  0.00000077  0.16612884  0.68676759  1.0
  H  H2  1  0.49999931  0.99188900  0.18286556  1.0
  H  H3  1  0.50000069  0.00811102  0.81713441  1.0
  H  H4  1  0.49999783  0.83832087  0.49065902  1.0
  H  H5  1  0.50000217  0.16167915  0.50934096  1.0
  Cl  Cl6  1  0.50000117  0.60353281  0.24583393  1.0
  Cl  Cl7  1  0.49999883  0.39646717  0.75416614  1.0
