# generated using pymatgen
data_NdVSb2
_symmetry_space_group_name_H-M   'P 1'
_cell_length_a   5.20199934
_cell_length_b   5.20199773
_cell_length_c   5.20199115
_cell_angle_alpha   59.99961691
_cell_angle_beta   59.99975865
_cell_angle_gamma   59.99976323
_symmetry_Int_Tables_number   1
_chemical_formula_structural   NdVSb2
_chemical_formula_sum   'Nd1 V1 Sb2'
_cell_volume   99.53876215
_cell_formula_units_Z   1
loop_
 _symmetry_equiv_pos_site_id
 _symmetry_equiv_pos_as_xyz
  1  'x, y, z'
loop_
 _atom_site_type_symbol
 _atom_site_label
 _atom_site_symmetry_multiplicity
 _atom_site_fract_x
 _atom_site_fract_y
 _atom_site_fract_z
 _atom_site_occupancy
  Nd  Nd0  1  0.99999997  0.00000002  0.00000001  1.0
  V  V1  1  0.50000003  0.49999998  0.49999998  1.0
  Sb  Sb2  1  0.25000001  0.25000010  0.25000013  1.0
  Sb  Sb3  1  0.75000000  0.74999990  0.74999987  1.0
