# generated using pymatgen
data_Ni2SeS
_symmetry_space_group_name_H-M   'P 1'
_cell_length_a   3.50346195
_cell_length_b   3.51117212
_cell_length_c   10.81302974
_cell_angle_alpha   89.86960422
_cell_angle_beta   90.06655522
_cell_angle_gamma   119.98190823
_symmetry_Int_Tables_number   1
_chemical_formula_structural   Ni2SeS
_chemical_formula_sum   'Ni4 Se2 S2'
_cell_volume   115.21408466
_cell_formula_units_Z   2
loop_
 _symmetry_equiv_pos_site_id
 _symmetry_equiv_pos_as_xyz
  1  'x, y, z'
loop_
 _atom_site_type_symbol
 _atom_site_label
 _atom_site_symmetry_multiplicity
 _atom_site_fract_x
 _atom_site_fract_y
 _atom_site_fract_z
 _atom_site_occupancy
  Ni  Ni0  1  0.33713624  0.66814682  0.37679443  1.0
  Ni  Ni1  1  0.66310684  0.33219465  0.62319725  1.0
  Ni  Ni2  1  0.66300985  0.33149435  0.87686243  1.0
  Ni  Ni3  1  0.33675820  0.66813913  0.12315067  1.0
  Se  Se4  1  0.67045198  0.33526340  0.24999280  1.0
  Se  Se5  1  0.32956335  0.66472719  0.75001276  1.0
  S  S6  1  0.00034255  0.00064136  0.49999715  1.0
  S  S7  1  0.99963098  0.99939311  0.99999251  1.0
