# generated using pymatgen
data_NiGeI4
_symmetry_space_group_name_H-M   'P 1'
_cell_length_a   6.79209700
_cell_length_b   7.04671342
_cell_length_c   8.07989303
_cell_angle_alpha   90.00006854
_cell_angle_beta   90.00007296
_cell_angle_gamma   90.47255508
_symmetry_Int_Tables_number   1
_chemical_formula_structural   NiGeI4
_chemical_formula_sum   'Ni2 Ge2 I8'
_cell_volume   386.70637278
_cell_formula_units_Z   2
loop_
 _symmetry_equiv_pos_site_id
 _symmetry_equiv_pos_as_xyz
  1  'x, y, z'
loop_
 _atom_site_type_symbol
 _atom_site_label
 _atom_site_symmetry_multiplicity
 _atom_site_fract_x
 _atom_site_fract_y
 _atom_site_fract_z
 _atom_site_occupancy
  Ni  Ni0  1  0.50000021  0.25000018  0.62669549  1.0
  Ni  Ni1  1  0.49999991  0.74999987  0.37330443  1.0
  Ge  Ge2  1  0.99999964  0.24999975  0.13727796  1.0
  Ge  Ge3  1  0.00000025  0.75000015  0.86272329  1.0
  I  I4  1  0.71532580  0.94179762  0.60811690  1.0
  I  I5  1  0.28467410  0.55820228  0.60811700  1.0
  I  I6  1  0.28467297  0.05820231  0.39188321  1.0
  I  I7  1  0.71532705  0.44179799  0.39188320  1.0
  I  I8  1  0.74337050  0.89907098  0.12517409  1.0
  I  I9  1  0.25663006  0.60092912  0.12517422  1.0
  I  I10  1  0.25662964  0.10092968  0.87482621  1.0
  I  I11  1  0.74336987  0.39907008  0.87482600  1.0
