# generated using pymatgen
data_NiPtF4
_symmetry_space_group_name_H-M   'P 1'
_cell_length_a   4.86758488
_cell_length_b   5.39767887
_cell_length_c   6.01012608
_cell_angle_alpha   90.00000933
_cell_angle_beta   89.99999448
_cell_angle_gamma   89.81871852
_symmetry_Int_Tables_number   1
_chemical_formula_structural   NiPtF4
_chemical_formula_sum   'Ni2 Pt2 F8'
_cell_volume   157.90721913
_cell_formula_units_Z   2
loop_
 _symmetry_equiv_pos_site_id
 _symmetry_equiv_pos_as_xyz
  1  'x, y, z'
loop_
 _atom_site_type_symbol
 _atom_site_label
 _atom_site_symmetry_multiplicity
 _atom_site_fract_x
 _atom_site_fract_y
 _atom_site_fract_z
 _atom_site_occupancy
  Ni  Ni0  1  0.99999998  0.24999999  0.13918337  1.0
  Ni  Ni1  1  0.00000002  0.75000001  0.86081690  1.0
  Pt  Pt2  1  0.50000000  0.24999999  0.65360681  1.0
  Pt  Pt3  1  0.50000000  0.75000001  0.34639352  1.0
  F  F4  1  0.75853746  0.90577973  0.62514627  1.0
  F  F5  1  0.24146261  0.59422030  0.62514614  1.0
  F  F6  1  0.24146243  0.09422021  0.37485414  1.0
  F  F7  1  0.75853748  0.40577974  0.37485422  1.0
  F  F8  1  0.77952379  0.93113783  0.10056517  1.0
  F  F9  1  0.22047610  0.56886222  0.10056507  1.0
  F  F10  1  0.22047619  0.06886221  0.89943515  1.0
  F  F11  1  0.77952393  0.43113775  0.89943523  1.0
