# generated using pymatgen
data_NiSnBr4
_symmetry_space_group_name_H-M   'P 1'
_cell_length_a   6.53792128
_cell_length_b   6.86558662
_cell_length_c   7.70497864
_cell_angle_alpha   89.99999953
_cell_angle_beta   90.00003247
_cell_angle_gamma   92.69717869
_symmetry_Int_Tables_number   1
_chemical_formula_structural   NiSnBr4
_chemical_formula_sum   'Ni2 Sn2 Br8'
_cell_volume   345.46765817
_cell_formula_units_Z   2
loop_
 _symmetry_equiv_pos_site_id
 _symmetry_equiv_pos_as_xyz
  1  'x, y, z'
loop_
 _atom_site_type_symbol
 _atom_site_label
 _atom_site_symmetry_multiplicity
 _atom_site_fract_x
 _atom_site_fract_y
 _atom_site_fract_z
 _atom_site_occupancy
  Ni  Ni0  1  0.50000002  0.24999985  0.62016089  1.0
  Ni  Ni1  1  0.49999996  0.75000007  0.37984302  1.0
  Sn  Sn2  1  0.99999958  0.25000004  0.15361271  1.0
  Sn  Sn3  1  0.00000037  0.75000006  0.84638696  1.0
  Br  Br4  1  0.71345520  0.94591439  0.59930846  1.0
  Br  Br5  1  0.28654490  0.55408555  0.59930838  1.0
  Br  Br6  1  0.28654801  0.05408895  0.40069305  1.0
  Br  Br7  1  0.71345192  0.44591099  0.40069321  1.0
  Br  Br8  1  0.73399615  0.89133325  0.12856974  1.0
  Br  Br9  1  0.26600468  0.60866648  0.12856940  1.0
  Br  Br10  1  0.26600375  0.10866640  0.87142790  1.0
  Br  Br11  1  0.73399545  0.39133396  0.87142827  1.0
