# generated using pymatgen
data_PAuS4
_symmetry_space_group_name_H-M   'P 1'
_cell_length_a   5.46664609
_cell_length_b   9.17704574
_cell_length_c   8.02145316
_cell_angle_alpha   91.37454246
_cell_angle_beta   89.99746249
_cell_angle_gamma   89.99899864
_symmetry_Int_Tables_number   1
_chemical_formula_structural   PAuS4
_chemical_formula_sum   'P2 Au2 S8'
_cell_volume   402.30174714
_cell_formula_units_Z   2
loop_
 _symmetry_equiv_pos_site_id
 _symmetry_equiv_pos_as_xyz
  1  'x, y, z'
loop_
 _atom_site_type_symbol
 _atom_site_label
 _atom_site_symmetry_multiplicity
 _atom_site_fract_x
 _atom_site_fract_y
 _atom_site_fract_z
 _atom_site_occupancy
  P  P0  1  0.05744300  0.25000936  0.74999318  1.0
  P  P1  1  0.94249891  0.74999642  0.25000473  1.0
  Au  Au2  1  0.00000756  0.49997316  0.50003815  1.0
  Au  Au3  1  0.00001286  0.00003753  0.99995143  1.0
  S  S4  1  0.74834612  0.70664089  0.46273013  1.0
  S  S5  1  0.74833805  0.79335272  0.03727237  1.0
  S  S6  1  0.13899392  0.94104572  0.26937898  1.0
  S  S7  1  0.13898900  0.55895574  0.23062445  1.0
  S  S8  1  0.86102944  0.05895441  0.73065548  1.0
  S  S9  1  0.86104149  0.44103458  0.76934491  1.0
  S  S10  1  0.25165358  0.20662506  0.96275427  1.0
  S  S11  1  0.25164607  0.29337441  0.53725194  1.0
