# generated using pymatgen
data_Pr2SbP
_symmetry_space_group_name_H-M   'P 1'
_cell_length_a   5.35886602
_cell_length_b   5.35879698
_cell_length_c   5.35885579
_cell_angle_alpha   59.99963938
_cell_angle_beta   60.00006501
_cell_angle_gamma   60.00015770
_symmetry_Int_Tables_number   1
_chemical_formula_structural   Pr2SbP
_chemical_formula_sum   'Pr2 Sb1 P1'
_cell_volume   108.81701857
_cell_formula_units_Z   1
loop_
 _symmetry_equiv_pos_site_id
 _symmetry_equiv_pos_as_xyz
  1  'x, y, z'
loop_
 _atom_site_type_symbol
 _atom_site_label
 _atom_site_symmetry_multiplicity
 _atom_site_fract_x
 _atom_site_fract_y
 _atom_site_fract_z
 _atom_site_occupancy
  Pr  Pr0  1  0.24999999  0.25000001  0.25000002  1.0
  Pr  Pr1  1  0.75000000  0.75000000  0.74999998  1.0
  Sb  Sb2  1  0.00000000  0.00000000  0.00000000  1.0
  P  P3  1  0.50000001  0.49999999  0.50000000  1.0
