# generated using pymatgen
data_PrErAs2
_symmetry_space_group_name_H-M   'P 1'
_cell_length_a   5.13562024
_cell_length_b   5.13561942
_cell_length_c   5.13561933
_cell_angle_alpha   60.00005713
_cell_angle_beta   60.00004047
_cell_angle_gamma   60.00005372
_symmetry_Int_Tables_number   1
_chemical_formula_structural   PrErAs2
_chemical_formula_sum   'Pr1 Er1 As2'
_cell_volume   95.77762373
_cell_formula_units_Z   1
loop_
 _symmetry_equiv_pos_site_id
 _symmetry_equiv_pos_as_xyz
  1  'x, y, z'
loop_
 _atom_site_type_symbol
 _atom_site_label
 _atom_site_symmetry_multiplicity
 _atom_site_fract_x
 _atom_site_fract_y
 _atom_site_fract_z
 _atom_site_occupancy
  Pr  Pr0  1  0.25000000  0.24999998  0.25000005  1.0
  Er  Er1  1  0.74999995  0.75000003  0.74999983  1.0
  As  As2  1  0.00000001  0.99999996  0.00000006  1.0
  As  As3  1  0.50000004  0.50000003  0.50000006  1.0
