# generated using pymatgen
data_PrHI2
_symmetry_space_group_name_H-M   'P 1'
_cell_length_a   8.82770021
_cell_length_b   8.82775793
_cell_length_c   10.11720521
_cell_angle_alpha   88.52228577
_cell_angle_beta   88.52219802
_cell_angle_gamma   117.24139776
_symmetry_Int_Tables_number   1
_chemical_formula_structural   PrHI2
_chemical_formula_sum   'Pr4 H4 I8'
_cell_volume   700.11431374
_cell_formula_units_Z   4
loop_
 _symmetry_equiv_pos_site_id
 _symmetry_equiv_pos_as_xyz
  1  'x, y, z'
loop_
 _atom_site_type_symbol
 _atom_site_label
 _atom_site_symmetry_multiplicity
 _atom_site_fract_x
 _atom_site_fract_y
 _atom_site_fract_z
 _atom_site_occupancy
  Pr  Pr0  1  0.92331627  0.70443248  0.58137376  1.0
  Pr  Pr1  1  0.29556866  0.07668619  0.91862571  1.0
  Pr  Pr2  1  0.07668373  0.29556751  0.41862624  1.0
  Pr  Pr3  1  0.70443134  0.92331381  0.08137428  1.0
  H  H4  1  0.67504336  0.61301454  0.64677273  1.0
  H  H5  1  0.38698492  0.32495456  0.85322764  1.0
  H  H6  1  0.32495664  0.38698546  0.35322727  1.0
  H  H7  1  0.61301508  0.67504544  0.14677236  1.0
  I  I8  1  0.23424078  0.08318782  0.59290330  1.0
  I  I9  1  0.91681214  0.76575912  0.90709679  1.0
  I  I10  1  0.76575922  0.91681218  0.40709670  1.0
  I  I11  1  0.08318786  0.23424089  0.09290321  1.0
  I  I12  1  0.92946856  0.53916792  0.31071840  1.0
  I  I13  1  0.46083171  0.07053137  0.18928181  1.0
  I  I14  1  0.07053144  0.46083208  0.68928160  1.0
  I  I15  1  0.53916828  0.92946863  0.81071820  1.0
