# generated using pymatgen
data_RbAgI2
_symmetry_space_group_name_H-M   'P 1'
_cell_length_a   4.70499008
_cell_length_b   4.70498990
_cell_length_c   24.17762940
_cell_angle_alpha   89.99999786
_cell_angle_beta   90.00000166
_cell_angle_gamma   120.00006315
_symmetry_Int_Tables_number   1
_chemical_formula_structural   RbAgI2
_chemical_formula_sum   'Rb3 Ag3 I6'
_cell_volume   463.51253049
_cell_formula_units_Z   3
loop_
 _symmetry_equiv_pos_site_id
 _symmetry_equiv_pos_as_xyz
  1  'x, y, z'
loop_
 _atom_site_type_symbol
 _atom_site_label
 _atom_site_symmetry_multiplicity
 _atom_site_fract_x
 _atom_site_fract_y
 _atom_site_fract_z
 _atom_site_occupancy
  Rb  Rb0  1  0.33333333  0.66666667  0.19948005  1.0
  Rb  Rb1  1  0.66666667  0.33333333  0.80051990  1.0
  Rb  Rb2  1  0.00000000  0.00000000  0.00000019  1.0
  Ag  Ag3  1  0.66666667  0.33333333  0.36408327  1.0
  Ag  Ag4  1  0.33333333  0.66666667  0.63591677  1.0
  Ag  Ag5  1  0.00000000  0.00000000  0.50000009  1.0
  I  I6  1  0.66666667  0.33333333  0.09991047  1.0
  I  I7  1  0.33333333  0.66666667  0.90008964  1.0
  I  I8  1  0.66666667  0.33333333  0.56737299  1.0
  I  I9  1  0.33333333  0.66666667  0.43262684  1.0
  I  I10  1  0.00000047  0.99999951  0.29982414  1.0
  I  I11  1  0.99999953  0.00000049  0.70017565  1.0
