# generated using pymatgen
data_RbAgBr2
_symmetry_space_group_name_H-M   'P 1'
_cell_length_a   6.74584126
_cell_length_b   6.74585030
_cell_length_c   8.33096215
_cell_angle_alpha   96.36540659
_cell_angle_beta   96.36529530
_cell_angle_gamma   106.70607857
_symmetry_Int_Tables_number   1
_chemical_formula_structural   RbAgBr2
_chemical_formula_sum   'Rb2 Ag2 Br4'
_cell_volume   356.79195832
_cell_formula_units_Z   2
loop_
 _symmetry_equiv_pos_site_id
 _symmetry_equiv_pos_as_xyz
  1  'x, y, z'
loop_
 _atom_site_type_symbol
 _atom_site_label
 _atom_site_symmetry_multiplicity
 _atom_site_fract_x
 _atom_site_fract_y
 _atom_site_fract_z
 _atom_site_occupancy
  Rb  Rb0  1  0.65672721  0.34327253  0.24999989  1.0
  Rb  Rb1  1  0.34327263  0.65672725  0.74999986  1.0
  Ag  Ag2  1  0.00000230  0.00000137  0.99999904  1.0
  Ag  Ag3  1  0.00000058  0.00000088  0.49999974  1.0
  Br  Br4  1  0.17352737  0.31494417  0.37565224  1.0
  Br  Br5  1  0.31494306  0.17352641  0.87565252  1.0
  Br  Br6  1  0.82647223  0.68505501  0.62434811  1.0
  Br  Br7  1  0.68505462  0.82647238  0.12434860  1.0
