# generated using pymatgen
data_RbAuS2
_symmetry_space_group_name_H-M   'P 1'
_cell_length_a   6.71756445
_cell_length_b   6.71756528
_cell_length_c   6.86146642
_cell_angle_alpha   99.66379519
_cell_angle_beta   99.66378708
_cell_angle_gamma   107.64190337
_symmetry_Int_Tables_number   1
_chemical_formula_structural   RbAuS2
_chemical_formula_sum   'Rb2 Au2 S4'
_cell_volume   282.88437964
_cell_formula_units_Z   2
loop_
 _symmetry_equiv_pos_site_id
 _symmetry_equiv_pos_as_xyz
  1  'x, y, z'
loop_
 _atom_site_type_symbol
 _atom_site_label
 _atom_site_symmetry_multiplicity
 _atom_site_fract_x
 _atom_site_fract_y
 _atom_site_fract_z
 _atom_site_occupancy
  Rb  Rb0  1  0.67238344  0.32761659  0.25000000  1.0
  Rb  Rb1  1  0.32761655  0.67238343  0.75000001  1.0
  Au  Au2  1  0.99999997  0.00000004  0.00000032  1.0
  Au  Au3  1  0.99999976  0.99999986  0.49999954  1.0
  S  S4  1  0.16429343  0.24966845  0.31809383  1.0
  S  S5  1  0.24966871  0.16429353  0.81809397  1.0
  S  S6  1  0.83570654  0.75033143  0.68190610  1.0
  S  S7  1  0.75033162  0.83570667  0.18190622  1.0
