# generated using pymatgen
data_RbAuO
_symmetry_space_group_name_H-M   'P 1'
_cell_length_a   4.55015458
_cell_length_b   4.55015427
_cell_length_c   4.55015392
_cell_angle_alpha   59.99991562
_cell_angle_beta   59.99991870
_cell_angle_gamma   59.99992375
_symmetry_Int_Tables_number   1
_chemical_formula_structural   RbAuO
_chemical_formula_sum   'Rb1 Au1 O1'
_cell_volume   66.61354839
_cell_formula_units_Z   1
loop_
 _symmetry_equiv_pos_site_id
 _symmetry_equiv_pos_as_xyz
  1  'x, y, z'
loop_
 _atom_site_type_symbol
 _atom_site_label
 _atom_site_symmetry_multiplicity
 _atom_site_fract_x
 _atom_site_fract_y
 _atom_site_fract_z
 _atom_site_occupancy
  Rb  Rb0  1  0.49999997  0.49999998  0.49999993  1.0
  Au  Au1  1  0.99999993  0.99999989  0.99999987  1.0
  O  O2  1  0.25000010  0.25000013  0.25000020  1.0
