# generated using pymatgen
data_RbCdAs
_symmetry_space_group_name_H-M   'P 1'
_cell_length_a   5.18443294
_cell_length_b   5.18442949
_cell_length_c   5.18443149
_cell_angle_alpha   59.99994823
_cell_angle_beta   59.99994204
_cell_angle_gamma   59.99993459
_symmetry_Int_Tables_number   1
_chemical_formula_structural   RbCdAs
_chemical_formula_sum   'Rb1 Cd1 As1'
_cell_volume   98.53438284
_cell_formula_units_Z   1
loop_
 _symmetry_equiv_pos_site_id
 _symmetry_equiv_pos_as_xyz
  1  'x, y, z'
loop_
 _atom_site_type_symbol
 _atom_site_label
 _atom_site_symmetry_multiplicity
 _atom_site_fract_x
 _atom_site_fract_y
 _atom_site_fract_z
 _atom_site_occupancy
  Rb  Rb0  1  0.99999995  0.99999980  0.00000004  1.0
  Cd  Cd1  1  0.50000006  0.50000004  0.50000007  1.0
  As  As2  1  0.74999998  0.75000015  0.74999989  1.0
