# generated using pymatgen
data_RbCoF4
_symmetry_space_group_name_H-M   'P 1'
_cell_length_a   5.75377874
_cell_length_b   5.25991816
_cell_length_c   6.96003021
_cell_angle_alpha   90.03489504
_cell_angle_beta   89.99173741
_cell_angle_gamma   91.75457701
_symmetry_Int_Tables_number   1
_chemical_formula_structural   RbCoF4
_chemical_formula_sum   'Rb2 Co2 F8'
_cell_volume   210.54237484
_cell_formula_units_Z   2
loop_
 _symmetry_equiv_pos_site_id
 _symmetry_equiv_pos_as_xyz
  1  'x, y, z'
loop_
 _atom_site_type_symbol
 _atom_site_label
 _atom_site_symmetry_multiplicity
 _atom_site_fract_x
 _atom_site_fract_y
 _atom_site_fract_z
 _atom_site_occupancy
  Rb  Rb0  1  0.49995566  0.24999370  0.67393856  1.0
  Rb  Rb1  1  0.50005584  0.75000554  0.32607404  1.0
  Co  Co2  1  0.00022836  0.25029158  0.13219592  1.0
  Co  Co3  1  0.99975002  0.74968208  0.86783645  1.0
  F  F4  1  0.78015655  0.32210693  0.31493872  1.0
  F  F5  1  0.22023540  0.17765498  0.31528668  1.0
  F  F6  1  0.21985852  0.67789492  0.68505342  1.0
  F  F7  1  0.77971853  0.82235865  0.68469433  1.0
  F  F8  1  0.82429022  0.92162086  0.07697427  1.0
  F  F9  1  0.17618587  0.57769934  0.07699221  1.0
  F  F10  1  0.17573280  0.07839054  0.92298480  1.0
  F  F11  1  0.82383224  0.42230088  0.92303060  1.0
