# generated using pymatgen
data_RbCuS
_symmetry_space_group_name_H-M   'P 1'
_cell_length_a   4.69238740
_cell_length_b   4.69237480
_cell_length_c   4.69238852
_cell_angle_alpha   59.99723896
_cell_angle_beta   59.99740580
_cell_angle_gamma   59.99723899
_symmetry_Int_Tables_number   1
_chemical_formula_structural   RbCuS
_chemical_formula_sum   'Rb1 Cu1 S1'
_cell_volume   73.05313858
_cell_formula_units_Z   1
loop_
 _symmetry_equiv_pos_site_id
 _symmetry_equiv_pos_as_xyz
  1  'x, y, z'
loop_
 _atom_site_type_symbol
 _atom_site_label
 _atom_site_symmetry_multiplicity
 _atom_site_fract_x
 _atom_site_fract_y
 _atom_site_fract_z
 _atom_site_occupancy
  Rb  Rb0  1  0.49999860  0.49999829  0.49999858  1.0
  Cu  Cu1  1  0.25000398  0.25000510  0.25000403  1.0
  S  S2  1  0.99999741  0.99999661  0.99999739  1.0
