# generated using pymatgen
data_RbErF4
_symmetry_space_group_name_H-M   'P 1'
_cell_length_a   6.64521026
_cell_length_b   6.21823505
_cell_length_c   5.95381763
_cell_angle_alpha   92.33696755
_cell_angle_beta   90.00000133
_cell_angle_gamma   89.99999384
_symmetry_Int_Tables_number   1
_chemical_formula_structural   RbErF4
_chemical_formula_sum   'Rb2 Er2 F8'
_cell_volume   245.81593547
_cell_formula_units_Z   2
loop_
 _symmetry_equiv_pos_site_id
 _symmetry_equiv_pos_as_xyz
  1  'x, y, z'
loop_
 _atom_site_type_symbol
 _atom_site_label
 _atom_site_symmetry_multiplicity
 _atom_site_fract_x
 _atom_site_fract_y
 _atom_site_fract_z
 _atom_site_occupancy
  Rb  Rb0  1  0.69180688  0.50000002  0.75000002  1.0
  Rb  Rb1  1  0.30819315  0.49999997  0.24999995  1.0
  Er  Er2  1  0.16369985  0.99999987  0.74999996  1.0
  Er  Er3  1  0.83630013  0.00000020  0.25000008  1.0
  F  F4  1  0.92206701  0.18197266  0.95496623  1.0
  F  F5  1  0.36693600  0.23156640  0.86731176  1.0
  F  F6  1  0.36693596  0.76843345  0.63268817  1.0
  F  F7  1  0.92206695  0.81802735  0.54503376  1.0
  F  F8  1  0.07793304  0.18197265  0.45496626  1.0
  F  F9  1  0.63306405  0.23156655  0.36731182  1.0
  F  F10  1  0.63306402  0.76843355  0.13268821  1.0
  F  F11  1  0.07793297  0.81802731  0.04503377  1.0
