# generated using pymatgen
data_RbGaF4
_symmetry_space_group_name_H-M   'P 1'
_cell_length_a   6.59016747
_cell_length_b   6.86031517
_cell_length_c   11.83743061
_cell_angle_alpha   68.41643667
_cell_angle_beta   89.99998659
_cell_angle_gamma   89.99997401
_symmetry_Int_Tables_number   1
_chemical_formula_structural   RbGaF4
_chemical_formula_sum   'Rb4 Ga4 F16'
_cell_volume   497.65208868
_cell_formula_units_Z   4
loop_
 _symmetry_equiv_pos_site_id
 _symmetry_equiv_pos_as_xyz
  1  'x, y, z'
loop_
 _atom_site_type_symbol
 _atom_site_label
 _atom_site_symmetry_multiplicity
 _atom_site_fract_x
 _atom_site_fract_y
 _atom_site_fract_z
 _atom_site_occupancy
  Rb  Rb0  1  0.83135808  0.00000044  0.24999988  1.0
  Rb  Rb1  1  0.16864225  0.99999975  0.75000020  1.0
  Rb  Rb2  1  0.34912378  0.50000001  0.24999999  1.0
  Rb  Rb3  1  0.65087712  0.49999974  0.75000010  1.0
  Ga  Ga4  1  0.71130398  0.20643173  0.54060512  1.0
  Ga  Ga5  1  0.71130540  0.79356743  0.95939558  1.0
  Ga  Ga6  1  0.28869499  0.79356780  0.45939492  1.0
  Ga  Ga7  1  0.28869561  0.20643298  0.04060436  1.0
  F  F8  1  0.10230838  0.67079890  0.39585855  1.0
  F  F9  1  0.10230874  0.32920176  0.10414085  1.0
  F  F10  1  0.89769120  0.32920039  0.60414124  1.0
  F  F11  1  0.89769196  0.67079826  0.89585910  1.0
  F  F12  1  0.46742310  0.73262519  0.91006872  1.0
  F  F13  1  0.46742192  0.26737551  0.58993150  1.0
  F  F14  1  0.53257768  0.26737575  0.08993126  1.0
  F  F15  1  0.53257746  0.73262509  0.41006849  1.0
  F  F16  1  0.71523272  0.27583950  0.37851172  1.0
  F  F17  1  0.71523428  0.72415926  0.12148895  1.0
  F  F18  1  0.28476538  0.72415952  0.62148836  1.0
  F  F19  1  0.28476669  0.27584123  0.87851096  1.0
  F  F20  1  0.23820885  0.07175761  0.38817850  1.0
  F  F21  1  0.23820983  0.92824311  0.11182116  1.0
  F  F22  1  0.76178895  0.92824178  0.61182175  1.0
  F  F23  1  0.76179166  0.07175724  0.88817875  1.0
