# generated using pymatgen
data_RbLiCl2
_symmetry_space_group_name_H-M   'P 1'
_cell_length_a   4.04797403
_cell_length_b   7.33683948
_cell_length_c   7.01144705
_cell_angle_alpha   90.00447224
_cell_angle_beta   89.99999833
_cell_angle_gamma   90.00000119
_symmetry_Int_Tables_number   1
_chemical_formula_structural   RbLiCl2
_chemical_formula_sum   'Rb2 Li2 Cl4'
_cell_volume   208.23531889
_cell_formula_units_Z   2
loop_
 _symmetry_equiv_pos_site_id
 _symmetry_equiv_pos_as_xyz
  1  'x, y, z'
loop_
 _atom_site_type_symbol
 _atom_site_label
 _atom_site_symmetry_multiplicity
 _atom_site_fract_x
 _atom_site_fract_y
 _atom_site_fract_z
 _atom_site_occupancy
  Rb  Rb0  1  0.25236029  0.49999999  0.75000000  1.0
  Rb  Rb1  1  0.74763970  0.50000001  0.25000001  1.0
  Li  Li2  1  0.75001884  0.00000001  0.25000001  1.0
  Li  Li3  1  0.24998117  0.99999999  0.74999997  1.0
  Cl  Cl4  1  0.24882421  0.19452882  0.08321281  1.0
  Cl  Cl5  1  0.75117577  0.19452880  0.58321279  1.0
  Cl  Cl6  1  0.75117578  0.80547120  0.91678719  1.0
  Cl  Cl7  1  0.24882425  0.80547119  0.41678722  1.0
