# generated using pymatgen
data_RbMnTe2
_symmetry_space_group_name_H-M   'P 1'
_cell_length_a   7.41876230
_cell_length_b   7.41876721
_cell_length_c   7.30310153
_cell_angle_alpha   99.06936659
_cell_angle_beta   99.06916849
_cell_angle_gamma   105.05529753
_symmetry_Int_Tables_number   1
_chemical_formula_structural   RbMnTe2
_chemical_formula_sum   'Rb2 Mn2 Te4'
_cell_volume   374.89719119
_cell_formula_units_Z   2
loop_
 _symmetry_equiv_pos_site_id
 _symmetry_equiv_pos_as_xyz
  1  'x, y, z'
loop_
 _atom_site_type_symbol
 _atom_site_label
 _atom_site_symmetry_multiplicity
 _atom_site_fract_x
 _atom_site_fract_y
 _atom_site_fract_z
 _atom_site_occupancy
  Rb  Rb0  1  0.66788050  0.33211938  0.24999480  1.0
  Rb  Rb1  1  0.33211950  0.66788062  0.75000520  1.0
  Mn  Mn2  1  0.00000000  0.00000000  0.00000000  1.0
  Mn  Mn3  1  0.00000000  0.00000000  0.50000000  1.0
  Te  Te4  1  0.16118978  0.25913673  0.31686630  1.0
  Te  Te5  1  0.25913621  0.16119148  0.81686238  1.0
  Te  Te6  1  0.83881021  0.74086327  0.68313370  1.0
  Te  Te7  1  0.74086379  0.83880852  0.18313762  1.0
