# generated using pymatgen
data_RbTe2P
_symmetry_space_group_name_H-M   'P 1'
_cell_length_a   7.29507368
_cell_length_b   7.29492880
_cell_length_c   7.23770613
_cell_angle_alpha   102.86763843
_cell_angle_beta   102.87988821
_cell_angle_gamma   99.81739361
_symmetry_Int_Tables_number   1
_chemical_formula_structural   RbTe2P
_chemical_formula_sum   'Rb2 Te4 P2'
_cell_volume   356.09214347
_cell_formula_units_Z   2
loop_
 _symmetry_equiv_pos_site_id
 _symmetry_equiv_pos_as_xyz
  1  'x, y, z'
loop_
 _atom_site_type_symbol
 _atom_site_label
 _atom_site_symmetry_multiplicity
 _atom_site_fract_x
 _atom_site_fract_y
 _atom_site_fract_z
 _atom_site_occupancy
  Rb  Rb0  1  0.70877569  0.29121176  0.25001859  1.0
  Rb  Rb1  1  0.29122428  0.70878821  0.74998138  1.0
  Te  Te2  1  0.21798306  0.22038471  0.34872901  1.0
  Te  Te3  1  0.22039546  0.21797986  0.84876456  1.0
  Te  Te4  1  0.78201696  0.77961531  0.65127099  1.0
  Te  Te5  1  0.77960455  0.78202015  0.15123544  1.0
  P  P6  1  0.00000040  0.99999959  0.00000002  1.0
  P  P7  1  0.99999959  0.00000041  0.50000002  1.0
