# generated using pymatgen
data_RbTe2Ru
_symmetry_space_group_name_H-M   'P 1'
_cell_length_a   7.59497735
_cell_length_b   7.59490477
_cell_length_c   5.64454672
_cell_angle_alpha   89.93747967
_cell_angle_beta   89.93772618
_cell_angle_gamma   107.98342647
_symmetry_Int_Tables_number   1
_chemical_formula_structural   RbTe2Ru
_chemical_formula_sum   'Rb2 Te4 Ru2'
_cell_volume   309.68792080
_cell_formula_units_Z   2
loop_
 _symmetry_equiv_pos_site_id
 _symmetry_equiv_pos_as_xyz
  1  'x, y, z'
loop_
 _atom_site_type_symbol
 _atom_site_label
 _atom_site_symmetry_multiplicity
 _atom_site_fract_x
 _atom_site_fract_y
 _atom_site_fract_z
 _atom_site_occupancy
  Rb  Rb0  1  0.66536924  0.33461926  0.24995448  1.0
  Rb  Rb1  1  0.33463036  0.66538116  0.75004557  1.0
  Te  Te2  1  0.14145389  0.29870278  0.24869032  1.0
  Te  Te3  1  0.29870060  0.14146419  0.74855577  1.0
  Te  Te4  1  0.85854503  0.70129616  0.75130757  1.0
  Te  Te5  1  0.70130050  0.85853689  0.25144630  1.0
  Ru  Ru6  1  0.99999912  0.99999872  0.99999868  1.0
  Ru  Ru7  1  0.00000125  0.00000084  0.50000132  1.0
