# generated using pymatgen
data_RbYbP
_symmetry_space_group_name_H-M   'P 1'
_cell_length_a   5.20461927
_cell_length_b   5.20462223
_cell_length_c   5.20461975
_cell_angle_alpha   59.99998694
_cell_angle_beta   59.99998261
_cell_angle_gamma   59.99997595
_symmetry_Int_Tables_number   1
_chemical_formula_structural   RbYbP
_chemical_formula_sum   'Rb1 Yb1 P1'
_cell_volume   99.69009421
_cell_formula_units_Z   1
loop_
 _symmetry_equiv_pos_site_id
 _symmetry_equiv_pos_as_xyz
  1  'x, y, z'
loop_
 _atom_site_type_symbol
 _atom_site_label
 _atom_site_symmetry_multiplicity
 _atom_site_fract_x
 _atom_site_fract_y
 _atom_site_fract_z
 _atom_site_occupancy
  Rb  Rb0  1  0.24999984  0.25000002  0.24999999  1.0
  Yb  Yb1  1  0.75000006  0.75000004  0.75000001  1.0
  P  P2  1  0.00000010  0.99999994  0.00000000  1.0
