# generated using pymatgen
data_RbYS2
_symmetry_space_group_name_H-M   'P 1'
_cell_length_a   7.16042360
_cell_length_b   7.83103651
_cell_length_c   9.27143183
_cell_angle_alpha   107.39833683
_cell_angle_beta   104.55638218
_cell_angle_gamma   108.62041364
_symmetry_Int_Tables_number   1
_chemical_formula_structural   RbYS2
_chemical_formula_sum   'Rb4 Y4 S8'
_cell_volume   434.18118199
_cell_formula_units_Z   4
loop_
 _symmetry_equiv_pos_site_id
 _symmetry_equiv_pos_as_xyz
  1  'x, y, z'
loop_
 _atom_site_type_symbol
 _atom_site_label
 _atom_site_symmetry_multiplicity
 _atom_site_fract_x
 _atom_site_fract_y
 _atom_site_fract_z
 _atom_site_occupancy
  Rb  Rb0  1  0.42427214  0.17437241  0.84874689  1.0
  Rb  Rb1  1  0.19786784  0.94797441  0.39590422  1.0
  Rb  Rb2  1  0.57572806  0.82562805  0.15125351  1.0
  Rb  Rb3  1  0.80213342  0.05202536  0.60409617  1.0
  Y  Y4  1  0.31655189  0.56655569  0.63299077  1.0
  Y  Y5  1  0.68344859  0.43344453  0.36700984  1.0
  Y  Y6  1  0.06021191  0.31023565  0.12047925  1.0
  Y  Y7  1  0.93978838  0.68976513  0.87952130  1.0
  S  S8  1  0.04191516  0.74412604  0.62701189  1.0
  S  S9  1  0.58506230  0.38284892  0.62704157  1.0
  S  S10  1  0.95808477  0.25587405  0.37298819  1.0
  S  S11  1  0.41493772  0.61715082  0.37295863  1.0
  S  S12  1  0.83491853  0.53591496  0.12698712  1.0
  S  S13  1  0.70796029  0.90900746  0.87298915  1.0
  S  S14  1  0.16508124  0.46408542  0.87301358  1.0
  S  S15  1  0.29203777  0.09099109  0.12700993  1.0
