# generated using pymatgen
data_RePbS4
_symmetry_space_group_name_H-M   'P 1'
_cell_length_a   5.54934607
_cell_length_b   7.31697702
_cell_length_c   7.88431022
_cell_angle_alpha   90.00016818
_cell_angle_beta   89.99993049
_cell_angle_gamma   90.24463627
_symmetry_Int_Tables_number   1
_chemical_formula_structural   RePbS4
_chemical_formula_sum   'Re2 Pb2 S8'
_cell_volume   320.13506478
_cell_formula_units_Z   2
loop_
 _symmetry_equiv_pos_site_id
 _symmetry_equiv_pos_as_xyz
  1  'x, y, z'
loop_
 _atom_site_type_symbol
 _atom_site_label
 _atom_site_symmetry_multiplicity
 _atom_site_fract_x
 _atom_site_fract_y
 _atom_site_fract_z
 _atom_site_occupancy
  Re  Re0  1  0.99999990  0.75000020  0.73877923  1.0
  Re  Re1  1  0.99999994  0.25000149  0.26120307  1.0
  Pb  Pb2  1  0.50000016  0.74999974  0.28174045  1.0
  Pb  Pb3  1  0.49999985  0.25000019  0.71825730  1.0
  S  S4  1  0.77708439  0.92247181  0.89584012  1.0
  S  S5  1  0.22293201  0.07751242  0.10414615  1.0
  S  S6  1  0.22291790  0.57752562  0.89584063  1.0
  S  S7  1  0.77706639  0.42248929  0.10414616  1.0
  S  S8  1  0.75443712  0.58670570  0.58122602  1.0
  S  S9  1  0.24559663  0.41331947  0.41879713  1.0
  S  S10  1  0.24556345  0.91329253  0.58122636  1.0
  S  S11  1  0.75440225  0.08668154  0.41879737  1.0
