# generated using pymatgen
data_RuPbF4
_symmetry_space_group_name_H-M   'P 1'
_cell_length_a   5.76695670
_cell_length_b   5.89714068
_cell_length_c   5.95342443
_cell_angle_alpha   90.00001604
_cell_angle_beta   90.00000845
_cell_angle_gamma   94.58345815
_symmetry_Int_Tables_number   1
_chemical_formula_structural   RuPbF4
_chemical_formula_sum   'Ru2 Pb2 F8'
_cell_volume   201.81986948
_cell_formula_units_Z   2
loop_
 _symmetry_equiv_pos_site_id
 _symmetry_equiv_pos_as_xyz
  1  'x, y, z'
loop_
 _atom_site_type_symbol
 _atom_site_label
 _atom_site_symmetry_multiplicity
 _atom_site_fract_x
 _atom_site_fract_y
 _atom_site_fract_z
 _atom_site_occupancy
  Ru  Ru0  1  0.99999997  0.75000009  0.79807750  1.0
  Ru  Ru1  1  0.00000002  0.24999992  0.20190706  1.0
  Pb  Pb2  1  0.50000004  0.74999993  0.26561185  1.0
  Pb  Pb3  1  0.49999995  0.25000008  0.73438808  1.0
  F  F4  1  0.75813761  0.97769588  0.94497959  1.0
  F  F5  1  0.24186219  0.02230392  0.05502417  1.0
  F  F6  1  0.24186247  0.52230422  0.94497953  1.0
  F  F7  1  0.75813775  0.47769599  0.05502423  1.0
  F  F8  1  0.73480486  0.58920346  0.57103127  1.0
  F  F9  1  0.26519302  0.41079651  0.42897269  1.0
  F  F10  1  0.26519482  0.91079657  0.57103125  1.0
  F  F11  1  0.73480731  0.08920344  0.42897276  1.0
