# generated using pymatgen
data_RuSO
_symmetry_space_group_name_H-M   'P 1'
_cell_length_a   3.76316036
_cell_length_b   3.76316068
_cell_length_c   3.76316041
_cell_angle_alpha   59.99999165
_cell_angle_beta   59.99999492
_cell_angle_gamma   59.99998792
_symmetry_Int_Tables_number   1
_chemical_formula_structural   RuSO
_chemical_formula_sum   'Ru1 S1 O1'
_cell_volume   37.68279756
_cell_formula_units_Z   1
loop_
 _symmetry_equiv_pos_site_id
 _symmetry_equiv_pos_as_xyz
  1  'x, y, z'
loop_
 _atom_site_type_symbol
 _atom_site_label
 _atom_site_symmetry_multiplicity
 _atom_site_fract_x
 _atom_site_fract_y
 _atom_site_fract_z
 _atom_site_occupancy
  Ru  Ru0  1  0.00000001  0.00000001  0.99999998  1.0
  S  S1  1  0.74999999  0.75000000  0.75000001  1.0
  O  O2  1  0.25000000  0.24999999  0.25000001  1.0
