# generated using pymatgen
data_SbBr2F
_symmetry_space_group_name_H-M   'P 1'
_cell_length_a   6.72497986
_cell_length_b   6.72497952
_cell_length_c   7.67737063
_cell_angle_alpha   58.19325170
_cell_angle_beta   58.19325166
_cell_angle_gamma   67.02502323
_symmetry_Int_Tables_number   1
_chemical_formula_structural   SbBr2F
_chemical_formula_sum   'Sb2 Br4 F2'
_cell_volume   247.69729397
_cell_formula_units_Z   2
loop_
 _symmetry_equiv_pos_site_id
 _symmetry_equiv_pos_as_xyz
  1  'x, y, z'
loop_
 _atom_site_type_symbol
 _atom_site_label
 _atom_site_symmetry_multiplicity
 _atom_site_fract_x
 _atom_site_fract_y
 _atom_site_fract_z
 _atom_site_occupancy
  Sb  Sb0  1  0.49999870  0.99999110  0.49999973  1.0
  Sb  Sb1  1  0.99999200  0.49999728  0.99999952  1.0
  Br  Br2  1  0.28536815  0.12737926  0.21640455  1.0
  Br  Br3  1  0.87260999  0.71463710  0.28360611  1.0
  Br  Br4  1  0.12737842  0.28536883  0.71640546  1.0
  Br  Br5  1  0.71463640  0.87261084  0.78360523  1.0
  F  F6  1  0.29934687  0.70066910  0.74998970  1.0
  F  F7  1  0.70066947  0.29934649  0.24998969  1.0
