# generated using pymatgen
data_ScCuH4
_symmetry_space_group_name_H-M   'P 1'
_cell_length_a   4.53610079
_cell_length_b   5.25701631
_cell_length_c   4.24686895
_cell_angle_alpha   104.35671830
_cell_angle_beta   90.00029245
_cell_angle_gamma   90.00001516
_symmetry_Int_Tables_number   1
_chemical_formula_structural   ScCuH4
_chemical_formula_sum   'Sc2 Cu2 H8'
_cell_volume   98.10968840
_cell_formula_units_Z   2
loop_
 _symmetry_equiv_pos_site_id
 _symmetry_equiv_pos_as_xyz
  1  'x, y, z'
loop_
 _atom_site_type_symbol
 _atom_site_label
 _atom_site_symmetry_multiplicity
 _atom_site_fract_x
 _atom_site_fract_y
 _atom_site_fract_z
 _atom_site_occupancy
  Sc  Sc0  1  0.99999995  0.50000011  0.49999995  1.0
  Sc  Sc1  1  0.50000005  0.99999997  0.49999990  1.0
  Cu  Cu2  1  0.99999993  0.99999984  0.99999971  1.0
  Cu  Cu3  1  0.50000003  0.49999994  0.99999992  1.0
  H  H4  1  0.70435886  0.20349070  0.13039666  1.0
  H  H5  1  0.20436346  0.29651231  0.86960594  1.0
  H  H6  1  0.36381024  0.63506244  0.35717038  1.0
  H  H7  1  0.86380989  0.86493433  0.64282663  1.0
  H  H8  1  0.29564120  0.79650938  0.86960342  1.0
  H  H9  1  0.79563645  0.70348776  0.13039416  1.0
  H  H10  1  0.63618977  0.36493756  0.64282973  1.0
  H  H11  1  0.13619018  0.13506567  0.35717360  1.0
