# generated using pymatgen
data_ScCuO2
_symmetry_space_group_name_H-M   'P 1'
_cell_length_a   3.14223150
_cell_length_b   5.48141027
_cell_length_c   5.65484008
_cell_angle_alpha   95.40670035
_cell_angle_beta   90.00000088
_cell_angle_gamma   89.99965436
_symmetry_Int_Tables_number   1
_chemical_formula_structural   ScCuO2
_chemical_formula_sum   'Sc2 Cu2 O4'
_cell_volume   96.96484484
_cell_formula_units_Z   2
loop_
 _symmetry_equiv_pos_site_id
 _symmetry_equiv_pos_as_xyz
  1  'x, y, z'
loop_
 _atom_site_type_symbol
 _atom_site_label
 _atom_site_symmetry_multiplicity
 _atom_site_fract_x
 _atom_site_fract_y
 _atom_site_fract_z
 _atom_site_occupancy
  Sc  Sc0  1  0.99999847  0.00000069  0.00000126  1.0
  Sc  Sc1  1  0.49999804  0.00000036  0.50000106  1.0
  Cu  Cu2  1  0.49999954  0.52934723  0.24653757  1.0
  Cu  Cu3  1  0.50001644  0.47065395  0.75345419  1.0
  O  O4  1  0.49999750  0.18453362  0.18843072  1.0
  O  O5  1  0.99999269  0.20478982  0.68804660  1.0
  O  O6  1  0.99999958  0.79520927  0.31195514  1.0
  O  O7  1  0.49999775  0.81546506  0.81157346  1.0
