# generated using pymatgen
data_ScTaSe4
_symmetry_space_group_name_H-M   'P 1'
_cell_length_a   5.95933560
_cell_length_b   6.52874937
_cell_length_c   7.57928732
_cell_angle_alpha   89.99998328
_cell_angle_beta   90.00000677
_cell_angle_gamma   91.50898795
_symmetry_Int_Tables_number   1
_chemical_formula_structural   ScTaSe4
_chemical_formula_sum   'Sc2 Ta2 Se8'
_cell_volume   294.78513143
_cell_formula_units_Z   2
loop_
 _symmetry_equiv_pos_site_id
 _symmetry_equiv_pos_as_xyz
  1  'x, y, z'
loop_
 _atom_site_type_symbol
 _atom_site_label
 _atom_site_symmetry_multiplicity
 _atom_site_fract_x
 _atom_site_fract_y
 _atom_site_fract_z
 _atom_site_occupancy
  Sc  Sc0  1  0.49999966  0.25000011  0.38205906  1.0
  Sc  Sc1  1  0.50000034  0.74999992  0.61794111  1.0
  Ta  Ta2  1  0.99999999  0.24999983  0.87826851  1.0
  Ta  Ta3  1  0.00000004  0.75000024  0.12173208  1.0
  Se  Se4  1  0.24591786  0.43208214  0.11426347  1.0
  Se  Se5  1  0.24495848  0.41208719  0.62995957  1.0
  Se  Se6  1  0.75408194  0.06791778  0.11426355  1.0
  Se  Se7  1  0.75504125  0.58791300  0.37004052  1.0
  Se  Se8  1  0.75504144  0.08791312  0.62995940  1.0
  Se  Se9  1  0.24591795  0.93208214  0.88573650  1.0
  Se  Se10  1  0.24495886  0.91208669  0.37004060  1.0
  Se  Se11  1  0.75408219  0.56791784  0.88573662  1.0
