# generated using pymatgen
data_ScTlTe2
_symmetry_space_group_name_H-M   'P 1'
_cell_length_a   8.77397631
_cell_length_b   8.77337438
_cell_length_c   16.58606241
_cell_angle_alpha   82.18179564
_cell_angle_beta   82.18154352
_cell_angle_gamma   89.97131011
_symmetry_Int_Tables_number   1
_chemical_formula_structural   ScTlTe2
_chemical_formula_sum   'Sc8 Tl8 Te16'
_cell_volume   1252.91466760
_cell_formula_units_Z   8
loop_
 _symmetry_equiv_pos_site_id
 _symmetry_equiv_pos_as_xyz
  1  'x, y, z'
loop_
 _atom_site_type_symbol
 _atom_site_label
 _atom_site_symmetry_multiplicity
 _atom_site_fract_x
 _atom_site_fract_y
 _atom_site_fract_z
 _atom_site_occupancy
  Sc  Sc0  1  0.41634608  0.28685686  0.35210833  1.0
  Sc  Sc1  1  0.71314717  0.58365365  0.14787618  1.0
  Sc  Sc2  1  0.58366024  0.71314423  0.64789216  1.0
  Sc  Sc3  1  0.28685161  0.41634048  0.85212337  1.0
  Sc  Sc4  1  0.71289752  0.09114007  0.14952756  1.0
  Sc  Sc5  1  0.90886712  0.28710562  0.35045971  1.0
  Sc  Sc6  1  0.28710257  0.90885657  0.85047246  1.0
  Sc  Sc7  1  0.09113490  0.71289499  0.64954001  1.0
  Tl  Tl8  1  0.65775107  0.78891615  0.36862855  1.0
  Tl  Tl9  1  0.21108318  0.34225079  0.13137023  1.0
  Tl  Tl10  1  0.34224732  0.21108500  0.63137011  1.0
  Tl  Tl11  1  0.78891456  0.65775033  0.86863164  1.0
  Tl  Tl12  1  0.23058089  0.84455281  0.12353229  1.0
  Tl  Tl13  1  0.15544656  0.76942035  0.37646566  1.0
  Tl  Tl14  1  0.76941470  0.15544769  0.87646701  1.0
  Tl  Tl15  1  0.84455339  0.23058197  0.62353542  1.0
  Te  Te16  1  0.42872274  0.05437647  0.25120410  1.0
  Te  Te17  1  0.94562819  0.57126727  0.24880212  1.0
  Te  Te18  1  0.57127762  0.94562611  0.74879498  1.0
  Te  Te19  1  0.05436936  0.42873382  0.75119866  1.0
  Te  Te20  1  0.43023058  0.56976240  0.25000304  1.0
  Te  Te21  1  0.56976867  0.43023762  0.74999668  1.0
  Te  Te22  1  0.94697039  0.05303561  0.25000310  1.0
  Te  Te23  1  0.05302840  0.94696489  0.74999709  1.0
  Te  Te24  1  0.72732531  0.86470848  0.04683357  1.0
  Te  Te25  1  0.13529220  0.27267424  0.45317221  1.0
  Te  Te26  1  0.27267525  0.13528792  0.95316624  1.0
  Te  Te27  1  0.86471098  0.72732774  0.54682749  1.0
  Te  Te28  1  0.63613317  0.25679164  0.45844900  1.0
  Te  Te29  1  0.74320750  0.36386499  0.04155444  1.0
  Te  Te30  1  0.36386979  0.74321070  0.54155164  1.0
  Te  Te31  1  0.25679098  0.63613252  0.95844496  1.0
