# generated using pymatgen
data_ScTlSb2
_symmetry_space_group_name_H-M   'P 1'
_cell_length_a   5.33828208
_cell_length_b   5.33825428
_cell_length_c   5.33826232
_cell_angle_alpha   60.00019384
_cell_angle_beta   59.99992916
_cell_angle_gamma   59.99969114
_symmetry_Int_Tables_number   1
_chemical_formula_structural   ScTlSb2
_chemical_formula_sum   'Sc1 Tl1 Sb2'
_cell_volume   107.56849160
_cell_formula_units_Z   1
loop_
 _symmetry_equiv_pos_site_id
 _symmetry_equiv_pos_as_xyz
  1  'x, y, z'
loop_
 _atom_site_type_symbol
 _atom_site_label
 _atom_site_symmetry_multiplicity
 _atom_site_fract_x
 _atom_site_fract_y
 _atom_site_fract_z
 _atom_site_occupancy
  Sc  Sc0  1  0.50000019  0.49999997  0.49999993  1.0
  Tl  Tl1  1  0.99999996  0.00000005  0.00000005  1.0
  Sb  Sb2  1  0.75000018  0.74999977  0.75000006  1.0
  Sb  Sb3  1  0.24999967  0.25000020  0.24999996  1.0
