# generated using pymatgen
data_SiTeS4
_symmetry_space_group_name_H-M   'P 1'
_cell_length_a   7.37025962
_cell_length_b   5.96883941
_cell_length_c   9.50951370
_cell_angle_alpha   90.00038689
_cell_angle_beta   90.00095332
_cell_angle_gamma   93.31295557
_symmetry_Int_Tables_number   1
_chemical_formula_structural   SiTeS4
_chemical_formula_sum   'Si2 Te2 S8'
_cell_volume   417.64239552
_cell_formula_units_Z   2
loop_
 _symmetry_equiv_pos_site_id
 _symmetry_equiv_pos_as_xyz
  1  'x, y, z'
loop_
 _atom_site_type_symbol
 _atom_site_label
 _atom_site_symmetry_multiplicity
 _atom_site_fract_x
 _atom_site_fract_y
 _atom_site_fract_z
 _atom_site_occupancy
  Si  Si0  1  0.99999992  0.74999516  0.99854254  1.0
  Si  Si1  1  0.00000047  0.25000493  0.00145755  1.0
  Te  Te2  1  0.50000325  0.75000227  0.40538804  1.0
  Te  Te3  1  0.50000062  0.24999841  0.59461211  1.0
  S  S4  1  0.84650306  0.48680363  0.88259486  1.0
  S  S5  1  0.15349646  0.51319645  0.11740492  1.0
  S  S6  1  0.15350051  0.01319736  0.88259226  1.0
  S  S7  1  0.84649910  0.98680271  0.11740789  1.0
  S  S8  1  0.71485324  0.91580871  0.56421289  1.0
  S  S9  1  0.28514499  0.08419074  0.43578611  1.0
  S  S10  1  0.28514330  0.58418985  0.56421519  1.0
  S  S11  1  0.71485508  0.41580977  0.43578565  1.0
