# generated using pymatgen
data_SmCdI4
_symmetry_space_group_name_H-M   'P 1'
_cell_length_a   8.99600380
_cell_length_b   7.40183912
_cell_length_c   7.86912224
_cell_angle_alpha   85.21807572
_cell_angle_beta   90.00085244
_cell_angle_gamma   89.99909125
_symmetry_Int_Tables_number   1
_chemical_formula_structural   SmCdI4
_chemical_formula_sum   'Sm2 Cd2 I8'
_cell_volume   522.15716006
_cell_formula_units_Z   2
loop_
 _symmetry_equiv_pos_site_id
 _symmetry_equiv_pos_as_xyz
  1  'x, y, z'
loop_
 _atom_site_type_symbol
 _atom_site_label
 _atom_site_symmetry_multiplicity
 _atom_site_fract_x
 _atom_site_fract_y
 _atom_site_fract_z
 _atom_site_occupancy
  Sm  Sm0  1  0.14056771  0.00000311  0.25000100  1.0
  Sm  Sm1  1  0.85943426  0.99999687  0.74999902  1.0
  Cd  Cd2  1  0.64439458  0.50000114  0.24999736  1.0
  Cd  Cd3  1  0.35558357  0.49999885  0.75000264  1.0
  I  I4  1  0.10430020  0.75980418  0.94405216  1.0
  I  I5  1  0.10429663  0.24019283  0.55595454  1.0
  I  I6  1  0.89568566  0.24020911  0.05595283  1.0
  I  I7  1  0.89568920  0.75979392  0.44404043  1.0
  I  I8  1  0.38360096  0.75181534  0.40935391  1.0
  I  I9  1  0.38359746  0.24817579  0.09065085  1.0
  I  I10  1  0.61642313  0.24819518  0.59060003  1.0
  I  I11  1  0.61642664  0.75181368  0.90939525  1.0
