# generated using pymatgen
data_SmCrN2
_symmetry_space_group_name_H-M   'P 1'
_cell_length_a   3.05038350
_cell_length_b   3.05038454
_cell_length_c   5.77142182
_cell_angle_alpha   90.00011619
_cell_angle_beta   90.00005565
_cell_angle_gamma   119.99992079
_symmetry_Int_Tables_number   1
_chemical_formula_structural   SmCrN2
_chemical_formula_sum   'Sm1 Cr1 N2'
_cell_volume   46.50748232
_cell_formula_units_Z   1
loop_
 _symmetry_equiv_pos_site_id
 _symmetry_equiv_pos_as_xyz
  1  'x, y, z'
loop_
 _atom_site_type_symbol
 _atom_site_label
 _atom_site_symmetry_multiplicity
 _atom_site_fract_x
 _atom_site_fract_y
 _atom_site_fract_z
 _atom_site_occupancy
  Sm  Sm0  1  0.00000013  0.99999999  0.00000004  1.0
  Cr  Cr1  1  0.99999960  0.00000002  0.49999998  1.0
  N  N2  1  0.33333333  0.66666667  0.30940643  1.0
  N  N3  1  0.66666667  0.33333333  0.69059354  1.0
