# generated using pymatgen
data_SmCuO2
_symmetry_space_group_name_H-M   'P 1'
_cell_length_a   3.47138121
_cell_length_b   5.43190996
_cell_length_c   6.43884743
_cell_angle_alpha   97.87542905
_cell_angle_beta   90.00007306
_cell_angle_gamma   90.00007439
_symmetry_Int_Tables_number   1
_chemical_formula_structural   SmCuO2
_chemical_formula_sum   'Sm2 Cu2 O4'
_cell_volume   120.26726569
_cell_formula_units_Z   2
loop_
 _symmetry_equiv_pos_site_id
 _symmetry_equiv_pos_as_xyz
  1  'x, y, z'
loop_
 _atom_site_type_symbol
 _atom_site_label
 _atom_site_symmetry_multiplicity
 _atom_site_fract_x
 _atom_site_fract_y
 _atom_site_fract_z
 _atom_site_occupancy
  Sm  Sm0  1  0.00000177  0.99999876  0.99999815  1.0
  Sm  Sm1  1  0.50000296  0.00000115  0.49999967  1.0
  Cu  Cu2  1  0.49999491  0.54574222  0.20979678  1.0
  Cu  Cu3  1  0.49998486  0.45425889  0.79020918  1.0
  O  O4  1  0.50000283  0.19545094  0.19895024  1.0
  O  O5  1  0.00000612  0.22457754  0.70048766  1.0
  O  O6  1  0.00000315  0.77542288  0.29951144  1.0
  O  O7  1  0.50000340  0.80454762  0.80104687  1.0
