# generated using pymatgen
data_SmGeO2
_symmetry_space_group_name_H-M   'P 1'
_cell_length_a   4.27303739
_cell_length_b   4.27303843
_cell_length_c   4.27303776
_cell_angle_alpha   59.99939674
_cell_angle_beta   59.99939695
_cell_angle_gamma   59.99941530
_symmetry_Int_Tables_number   1
_chemical_formula_structural   SmGeO2
_chemical_formula_sum   'Sm1 Ge1 O2'
_cell_volume   55.16826755
_cell_formula_units_Z   1
loop_
 _symmetry_equiv_pos_site_id
 _symmetry_equiv_pos_as_xyz
  1  'x, y, z'
loop_
 _atom_site_type_symbol
 _atom_site_label
 _atom_site_symmetry_multiplicity
 _atom_site_fract_x
 _atom_site_fract_y
 _atom_site_fract_z
 _atom_site_occupancy
  Sm  Sm0  1  0.99999998  0.00000001  0.00000000  1.0
  Ge  Ge1  1  0.49999999  0.50000001  0.50000000  1.0
  O  O2  1  0.75000103  0.75000089  0.75000100  1.0
  O  O3  1  0.24999900  0.24999909  0.24999899  1.0
