# generated using pymatgen
data_SmMoAs2
_symmetry_space_group_name_H-M   'P 1'
_cell_length_a   4.75882698
_cell_length_b   4.75882803
_cell_length_c   4.75882793
_cell_angle_alpha   59.99999797
_cell_angle_beta   59.99999685
_cell_angle_gamma   59.99999729
_symmetry_Int_Tables_number   1
_chemical_formula_structural   SmMoAs2
_chemical_formula_sum   'Sm1 Mo1 As2'
_cell_volume   76.20525211
_cell_formula_units_Z   1
loop_
 _symmetry_equiv_pos_site_id
 _symmetry_equiv_pos_as_xyz
  1  'x, y, z'
loop_
 _atom_site_type_symbol
 _atom_site_label
 _atom_site_symmetry_multiplicity
 _atom_site_fract_x
 _atom_site_fract_y
 _atom_site_fract_z
 _atom_site_occupancy
  Sm  Sm0  1  0.50000001  0.50000000  0.50000000  1.0
  Mo  Mo1  1  0.00000000  0.00000000  0.99999999  1.0
  As  As2  1  0.75000001  0.75000000  0.75000000  1.0
  As  As3  1  0.24999999  0.25000000  0.25000001  1.0
