# generated using pymatgen
data_SmNiF4
_symmetry_space_group_name_H-M   'P 1'
_cell_length_a   5.63956912
_cell_length_b   5.55526887
_cell_length_c   5.58542178
_cell_angle_alpha   89.99924571
_cell_angle_beta   89.99886701
_cell_angle_gamma   103.14868841
_symmetry_Int_Tables_number   1
_chemical_formula_structural   SmNiF4
_chemical_formula_sum   'Sm2 Ni2 F8'
_cell_volume   170.39983725
_cell_formula_units_Z   2
loop_
 _symmetry_equiv_pos_site_id
 _symmetry_equiv_pos_as_xyz
  1  'x, y, z'
loop_
 _atom_site_type_symbol
 _atom_site_label
 _atom_site_symmetry_multiplicity
 _atom_site_fract_x
 _atom_site_fract_y
 _atom_site_fract_z
 _atom_site_occupancy
  Sm  Sm0  1  0.99999625  0.75002188  0.75208208  1.0
  Sm  Sm1  1  0.99998769  0.25001482  0.24791648  1.0
  Ni  Ni2  1  0.50002050  0.24988835  0.70693485  1.0
  Ni  Ni3  1  0.50002254  0.74985226  0.29306877  1.0
  F  F4  1  0.76575454  0.96486613  0.53175756  1.0
  F  F5  1  0.23426589  0.53523605  0.53171043  1.0
  F  F6  1  0.23427306  0.03524743  0.46828235  1.0
  F  F7  1  0.76576015  0.46487523  0.46824853  1.0
  F  F8  1  0.21878215  0.61179276  0.05814290  1.0
  F  F9  1  0.78118043  0.88820251  0.05819070  1.0
  F  F10  1  0.78117919  0.38820697  0.94181764  1.0
  F  F11  1  0.21877760  0.11179561  0.94184771  1.0
