# generated using pymatgen
data_SmTiI4
_symmetry_space_group_name_H-M   'P 1'
_cell_length_a   7.26748263
_cell_length_b   7.64361113
_cell_length_c   7.74420623
_cell_angle_alpha   90.00096954
_cell_angle_beta   90.00053282
_cell_angle_gamma   102.05171500
_symmetry_Int_Tables_number   1
_chemical_formula_structural   SmTiI4
_chemical_formula_sum   'Sm2 Ti2 I8'
_cell_volume   420.70762632
_cell_formula_units_Z   2
loop_
 _symmetry_equiv_pos_site_id
 _symmetry_equiv_pos_as_xyz
  1  'x, y, z'
loop_
 _atom_site_type_symbol
 _atom_site_label
 _atom_site_symmetry_multiplicity
 _atom_site_fract_x
 _atom_site_fract_y
 _atom_site_fract_z
 _atom_site_occupancy
  Sm  Sm0  1  0.99999801  0.74999903  0.76567297  1.0
  Sm  Sm1  1  0.00000196  0.25000094  0.23433211  1.0
  Ti  Ti2  1  0.49999957  0.25000047  0.65032092  1.0
  Ti  Ti3  1  0.50000042  0.74999955  0.34966658  1.0
  I  I4  1  0.75105517  0.00533580  0.57446326  1.0
  I  I5  1  0.24894554  0.49466527  0.57446323  1.0
  I  I6  1  0.24894308  0.99466075  0.42553850  1.0
  I  I7  1  0.75105627  0.50533820  0.42553857  1.0
  I  I8  1  0.24718113  0.59668293  0.07487524  1.0
  I  I9  1  0.75281865  0.90331669  0.07487563  1.0
  I  I10  1  0.75281809  0.40331569  0.92512669  1.0
  I  I11  1  0.24718212  0.09668466  0.92512630  1.0
