# generated using pymatgen
data_SmVO4
_symmetry_space_group_name_H-M   'P 1'
_cell_length_a   5.61244187
_cell_length_b   4.83878309
_cell_length_c   5.61596510
_cell_angle_alpha   90.00011995
_cell_angle_beta   90.00132619
_cell_angle_gamma   90.00026916
_symmetry_Int_Tables_number   1
_chemical_formula_structural   SmVO4
_chemical_formula_sum   'Sm2 V2 O8'
_cell_volume   152.51494774
_cell_formula_units_Z   2
loop_
 _symmetry_equiv_pos_site_id
 _symmetry_equiv_pos_as_xyz
  1  'x, y, z'
loop_
 _atom_site_type_symbol
 _atom_site_label
 _atom_site_symmetry_multiplicity
 _atom_site_fract_x
 _atom_site_fract_y
 _atom_site_fract_z
 _atom_site_occupancy
  Sm  Sm0  1  0.25005681  0.50000632  0.75000257  1.0
  Sm  Sm1  1  0.74992671  0.50000667  0.24999881  1.0
  V  V2  1  0.75032312  0.00000361  0.75001288  1.0
  V  V3  1  0.24981358  0.99995207  0.24998335  1.0
  O  O4  1  0.08100512  0.76343104  0.08092140  1.0
  O  O5  1  0.91891954  0.76350565  0.58098042  1.0
  O  O6  1  0.58123765  0.76348372  0.91858737  1.0
  O  O7  1  0.41876744  0.76346816  0.41860214  1.0
  O  O8  1  0.58124442  0.23651239  0.58141816  1.0
  O  O9  1  0.41878514  0.23655091  0.08138068  1.0
  O  O10  1  0.08099560  0.23658816  0.41909018  1.0
  O  O11  1  0.91892486  0.23649129  0.91902204  1.0
