# generated using pymatgen
data_SnMoSe4
_symmetry_space_group_name_H-M   'P 1'
_cell_length_a   6.20729042
_cell_length_b   6.54585167
_cell_length_c   7.80482424
_cell_angle_alpha   89.99999086
_cell_angle_beta   90.00002165
_cell_angle_gamma   87.13674604
_symmetry_Int_Tables_number   1
_chemical_formula_structural   SnMoSe4
_chemical_formula_sum   'Sn2 Mo2 Se8'
_cell_volume   316.72973700
_cell_formula_units_Z   2
loop_
 _symmetry_equiv_pos_site_id
 _symmetry_equiv_pos_as_xyz
  1  'x, y, z'
loop_
 _atom_site_type_symbol
 _atom_site_label
 _atom_site_symmetry_multiplicity
 _atom_site_fract_x
 _atom_site_fract_y
 _atom_site_fract_z
 _atom_site_occupancy
  Sn  Sn0  1  0.49999991  0.24999990  0.70399888  1.0
  Sn  Sn1  1  0.50000015  0.75000007  0.29600080  1.0
  Mo  Mo2  1  0.99999987  0.25000002  0.17628907  1.0
  Mo  Mo3  1  0.00000015  0.74999999  0.82371025  1.0
  Se  Se4  1  0.73507460  0.37732855  0.37395515  1.0
  Se  Se5  1  0.26492550  0.12267136  0.37395506  1.0
  Se  Se6  1  0.26492462  0.62267315  0.62604683  1.0
  Se  Se7  1  0.73507532  0.87732688  0.62604687  1.0
  Se  Se8  1  0.79169722  0.94795137  0.08282606  1.0
  Se  Se9  1  0.20830251  0.55204879  0.08282627  1.0
  Se  Se10  1  0.20830235  0.05204762  0.91717246  1.0
  Se  Se11  1  0.79169779  0.44795232  0.91717232  1.0
