# generated using pymatgen
data_SnTe2Pt
_symmetry_space_group_name_H-M   'P 1'
_cell_length_a   3.96704779
_cell_length_b   7.42838451
_cell_length_c   7.60369243
_cell_angle_alpha   78.83155319
_cell_angle_beta   90.00000208
_cell_angle_gamma   90.00000153
_symmetry_Int_Tables_number   1
_chemical_formula_structural   SnTe2Pt
_chemical_formula_sum   'Sn2 Te4 Pt2'
_cell_volume   219.82789011
_cell_formula_units_Z   2
loop_
 _symmetry_equiv_pos_site_id
 _symmetry_equiv_pos_as_xyz
  1  'x, y, z'
loop_
 _atom_site_type_symbol
 _atom_site_label
 _atom_site_symmetry_multiplicity
 _atom_site_fract_x
 _atom_site_fract_y
 _atom_site_fract_z
 _atom_site_occupancy
  Sn  Sn0  1  0.00000004  0.50000000  0.00000000  1.0
  Sn  Sn1  1  0.99999998  0.50000000  0.50000000  1.0
  Te  Te2  1  0.99999999  0.84831697  0.70240724  1.0
  Te  Te3  1  0.49999999  0.24826638  0.82723595  1.0
  Te  Te4  1  0.50000002  0.75173362  0.17276405  1.0
  Te  Te5  1  0.99999999  0.15168303  0.29759276  1.0
  Pt  Pt6  1  0.49999999  0.00000000  0.50000000  1.0
  Pt  Pt7  1  0.00000000  0.00000000  0.00000000  1.0
