# generated using pymatgen
data_SrCoBr4
_symmetry_space_group_name_H-M   'P 1'
_cell_length_a   6.83768877
_cell_length_b   7.13639125
_cell_length_c   7.37894219
_cell_angle_alpha   90.00003792
_cell_angle_beta   89.99997063
_cell_angle_gamma   80.03428159
_symmetry_Int_Tables_number   1
_chemical_formula_structural   SrCoBr4
_chemical_formula_sum   'Sr2 Co2 Br8'
_cell_volume   354.63311478
_cell_formula_units_Z   2
loop_
 _symmetry_equiv_pos_site_id
 _symmetry_equiv_pos_as_xyz
  1  'x, y, z'
loop_
 _atom_site_type_symbol
 _atom_site_label
 _atom_site_symmetry_multiplicity
 _atom_site_fract_x
 _atom_site_fract_y
 _atom_site_fract_z
 _atom_site_occupancy
  Sr  Sr0  1  0.49999945  0.25000087  0.72986695  1.0
  Sr  Sr1  1  0.50000066  0.74999916  0.27013703  1.0
  Co  Co2  1  0.00000015  0.24999956  0.15900240  1.0
  Co  Co3  1  0.99999954  0.75000008  0.84100541  1.0
  Br  Br4  1  0.76008417  0.38977868  0.40456391  1.0
  Br  Br5  1  0.23991741  0.11022063  0.40456258  1.0
  Br  Br6  1  0.23991852  0.61022220  0.59543487  1.0
  Br  Br7  1  0.76008013  0.88977855  0.59543598  1.0
  Br  Br8  1  0.77049367  0.00073586  0.06975340  1.0
  Br  Br9  1  0.22950615  0.49926451  0.06975292  1.0
  Br  Br10  1  0.22951396  0.99926634  0.93024201  1.0
  Br  Br11  1  0.77048619  0.50073357  0.93024253  1.0
