# generated using pymatgen
data_SrFeSe2
_symmetry_space_group_name_H-M   'P 1'
_cell_length_a   3.89862785
_cell_length_b   3.89862583
_cell_length_c   6.49497965
_cell_angle_alpha   90.00003891
_cell_angle_beta   89.99998858
_cell_angle_gamma   119.99997713
_symmetry_Int_Tables_number   1
_chemical_formula_structural   SrFeSe2
_chemical_formula_sum   'Sr1 Fe1 Se2'
_cell_volume   85.49325713
_cell_formula_units_Z   1
loop_
 _symmetry_equiv_pos_site_id
 _symmetry_equiv_pos_as_xyz
  1  'x, y, z'
loop_
 _atom_site_type_symbol
 _atom_site_label
 _atom_site_symmetry_multiplicity
 _atom_site_fract_x
 _atom_site_fract_y
 _atom_site_fract_z
 _atom_site_occupancy
  Sr  Sr0  1  0.00000000  0.00000000  0.50000000  1.0
  Fe  Fe1  1  0.00000000  0.00000000  0.00000000  1.0
  Se  Se2  1  0.33333333  0.66666667  0.17507641  1.0
  Se  Se3  1  0.66666667  0.33333333  0.82492359  1.0
