# generated using pymatgen
data_SrZnTe2
_symmetry_space_group_name_H-M   'P 1'
_cell_length_a   4.24516570
_cell_length_b   4.41190772
_cell_length_c   16.35509456
_cell_angle_alpha   64.52785510
_cell_angle_beta   89.99858224
_cell_angle_gamma   90.00089320
_symmetry_Int_Tables_number   1
_chemical_formula_structural   SrZnTe2
_chemical_formula_sum   'Sr2 Zn2 Te4'
_cell_volume   276.54322232
_cell_formula_units_Z   2
loop_
 _symmetry_equiv_pos_site_id
 _symmetry_equiv_pos_as_xyz
  1  'x, y, z'
loop_
 _atom_site_type_symbol
 _atom_site_label
 _atom_site_symmetry_multiplicity
 _atom_site_fract_x
 _atom_site_fract_y
 _atom_site_fract_z
 _atom_site_occupancy
  Sr  Sr0  1  0.00000202  0.33720655  0.80351210  1.0
  Sr  Sr1  1  0.99999803  0.66279203  0.19648718  1.0
  Zn  Zn2  1  0.99999770  0.04778233  0.56687850  1.0
  Zn  Zn3  1  0.00000225  0.95221899  0.43312166  1.0
  Te  Te4  1  0.49999076  0.05764835  0.66872918  1.0
  Te  Te5  1  0.50000918  0.94235348  0.33127175  1.0
  Te  Te6  1  0.49999526  0.67269658  0.90241164  1.0
  Te  Te7  1  0.50000480  0.32730168  0.09758800  1.0
