# generated using pymatgen
data_TaGaSe4
_symmetry_space_group_name_H-M   'P 1'
_cell_length_a   5.86662037
_cell_length_b   6.14535476
_cell_length_c   9.27230770
_cell_angle_alpha   90.00000499
_cell_angle_beta   89.99999209
_cell_angle_gamma   98.82986754
_symmetry_Int_Tables_number   1
_chemical_formula_structural   TaGaSe4
_chemical_formula_sum   'Ta2 Ga2 Se8'
_cell_volume   330.32770094
_cell_formula_units_Z   2
loop_
 _symmetry_equiv_pos_site_id
 _symmetry_equiv_pos_as_xyz
  1  'x, y, z'
loop_
 _atom_site_type_symbol
 _atom_site_label
 _atom_site_symmetry_multiplicity
 _atom_site_fract_x
 _atom_site_fract_y
 _atom_site_fract_z
 _atom_site_occupancy
  Ta  Ta0  1  0.50000004  0.25000006  0.66120531  1.0
  Ta  Ta1  1  0.49999996  0.74999996  0.33879391  1.0
  Ga  Ga2  1  0.99999995  0.75000003  0.71075952  1.0
  Ga  Ga3  1  0.99999991  0.24999983  0.28924084  1.0
  Se  Se4  1  0.73833822  0.96091597  0.56775914  1.0
  Se  Se5  1  0.26166185  0.53908412  0.56775921  1.0
  Se  Se6  1  0.26166185  0.03908390  0.43224087  1.0
  Se  Se7  1  0.73833833  0.46091619  0.43224087  1.0
  Se  Se8  1  0.24403485  0.54708952  0.15772741  1.0
  Se  Se9  1  0.75596499  0.95291030  0.15772733  1.0
  Se  Se10  1  0.75596569  0.45290995  0.84227284  1.0
  Se  Se11  1  0.24403435  0.04709017  0.84227277  1.0
