# generated using pymatgen
data_TaReTe4
_symmetry_space_group_name_H-M   'P 1'
_cell_length_a   6.13380981
_cell_length_b   6.46904365
_cell_length_c   7.71829900
_cell_angle_alpha   89.99998260
_cell_angle_beta   90.00000629
_cell_angle_gamma   89.52247213
_symmetry_Int_Tables_number   1
_chemical_formula_structural   TaReTe4
_chemical_formula_sum   'Ta2 Re2 Te8'
_cell_volume   306.25056756
_cell_formula_units_Z   2
loop_
 _symmetry_equiv_pos_site_id
 _symmetry_equiv_pos_as_xyz
  1  'x, y, z'
loop_
 _atom_site_type_symbol
 _atom_site_label
 _atom_site_symmetry_multiplicity
 _atom_site_fract_x
 _atom_site_fract_y
 _atom_site_fract_z
 _atom_site_occupancy
  Ta  Ta0  1  0.99999997  0.75000003  0.89926957  1.0
  Ta  Ta1  1  0.00000002  0.24999996  0.10072831  1.0
  Re  Re2  1  0.50000003  0.74999977  0.39678580  1.0
  Re  Re3  1  0.49999997  0.25000019  0.60321416  1.0
  Te  Te4  1  0.71114083  0.42883587  0.87408171  1.0
  Te  Te5  1  0.28885790  0.57116637  0.12591777  1.0
  Te  Te6  1  0.28885915  0.07116417  0.87408169  1.0
  Te  Te7  1  0.71114201  0.92883364  0.12591769  1.0
  Te  Te8  1  0.77894482  0.92847135  0.61858569  1.0
  Te  Te9  1  0.22105622  0.07152812  0.38141594  1.0
  Te  Te10  1  0.22105501  0.57152871  0.61858574  1.0
  Te  Te11  1  0.77894407  0.42847181  0.38141593  1.0
