# generated using pymatgen
data_Tb5TlSe8
_symmetry_space_group_name_H-M   'P 1'
_cell_length_a   4.16171544
_cell_length_b   9.94876175
_cell_length_c   10.95615099
_cell_angle_alpha   104.22600962
_cell_angle_beta   100.94685692
_cell_angle_gamma   90.00010248
_symmetry_Int_Tables_number   1
_chemical_formula_structural   Tb5TlSe8
_chemical_formula_sum   'Tb5 Tl1 Se8'
_cell_volume   431.19597875
_cell_formula_units_Z   1
loop_
 _symmetry_equiv_pos_site_id
 _symmetry_equiv_pos_as_xyz
  1  'x, y, z'
loop_
 _atom_site_type_symbol
 _atom_site_label
 _atom_site_symmetry_multiplicity
 _atom_site_fract_x
 _atom_site_fract_y
 _atom_site_fract_z
 _atom_site_occupancy
  Tb  Tb0  1  0.20208465  0.84128008  0.40416530  1.0
  Tb  Tb1  1  0.84591826  0.55720041  0.69180230  1.0
  Tb  Tb2  1  0.15408173  0.44279959  0.30819769  1.0
  Tb  Tb3  1  0.79791536  0.15871992  0.59583473  1.0
  Tb  Tb4  1  0.50000000  0.50000001  0.00000001  1.0
  Tl  Tl5  1  0.00000001  0.99999992  0.99999994  1.0
  Se  Se6  1  0.07861666  0.64660836  0.15724240  1.0
  Se  Se7  1  0.33095317  0.00073576  0.66194730  1.0
  Se  Se8  1  0.42283623  0.70381388  0.84566991  1.0
  Se  Se9  1  0.72739186  0.64180104  0.45475988  1.0
  Se  Se10  1  0.27260813  0.35819896  0.54524012  1.0
  Se  Se11  1  0.57716376  0.29618614  0.15433008  1.0
  Se  Se12  1  0.66904683  0.99926425  0.33805274  1.0
  Se  Se13  1  0.92138333  0.35339167  0.84275760  1.0
