# generated using pymatgen
data_TbBiS4
_symmetry_space_group_name_H-M   'P 1'
_cell_length_a   6.67647543
_cell_length_b   6.94669707
_cell_length_c   7.00392237
_cell_angle_alpha   90.00046582
_cell_angle_beta   90.00022136
_cell_angle_gamma   104.11978434
_symmetry_Int_Tables_number   1
_chemical_formula_structural   TbBiS4
_chemical_formula_sum   'Tb2 Bi2 S8'
_cell_volume   315.02402230
_cell_formula_units_Z   2
loop_
 _symmetry_equiv_pos_site_id
 _symmetry_equiv_pos_as_xyz
  1  'x, y, z'
loop_
 _atom_site_type_symbol
 _atom_site_label
 _atom_site_symmetry_multiplicity
 _atom_site_fract_x
 _atom_site_fract_y
 _atom_site_fract_z
 _atom_site_occupancy
  Tb  Tb0  1  0.00000105  0.75000223  0.72562379  1.0
  Tb  Tb1  1  0.99999909  0.24999776  0.27437623  1.0
  Bi  Bi2  1  0.50001170  0.24999814  0.67146640  1.0
  Bi  Bi3  1  0.49998843  0.75000174  0.32853358  1.0
  S  S4  1  0.75052369  0.99494961  0.55514413  1.0
  S  S5  1  0.24947781  0.50505161  0.55514442  1.0
  S  S6  1  0.24947641  0.00505030  0.44485577  1.0
  S  S7  1  0.75052232  0.49494830  0.44485565  1.0
  S  S8  1  0.15076121  0.57788815  0.03951963  1.0
  S  S9  1  0.84924224  0.92210795  0.03952984  1.0
  S  S10  1  0.84923844  0.42211200  0.96048059  1.0
  S  S11  1  0.15075763  0.07789221  0.96046996  1.0
