# generated using pymatgen
data_TbHgBr4
_symmetry_space_group_name_H-M   'P 1'
_cell_length_a   7.64865736
_cell_length_b   7.33593551
_cell_length_c   8.93391553
_cell_angle_alpha   90.00000047
_cell_angle_beta   89.99998127
_cell_angle_gamma   105.92864848
_symmetry_Int_Tables_number   1
_chemical_formula_structural   TbHgBr4
_chemical_formula_sum   'Tb2 Hg2 Br8'
_cell_volume   482.03537122
_cell_formula_units_Z   2
loop_
 _symmetry_equiv_pos_site_id
 _symmetry_equiv_pos_as_xyz
  1  'x, y, z'
loop_
 _atom_site_type_symbol
 _atom_site_label
 _atom_site_symmetry_multiplicity
 _atom_site_fract_x
 _atom_site_fract_y
 _atom_site_fract_z
 _atom_site_occupancy
  Tb  Tb0  1  0.49999990  0.24999998  0.62327218  1.0
  Tb  Tb1  1  0.50000007  0.75000001  0.37670544  1.0
  Hg  Hg2  1  0.99999991  0.74999991  0.81822808  1.0
  Hg  Hg3  1  0.00000013  0.25000009  0.18178287  1.0
  Br  Br4  1  0.72523461  0.00324030  0.58550346  1.0
  Br  Br5  1  0.27476527  0.49675964  0.58550342  1.0
  Br  Br6  1  0.27475573  0.99678037  0.41447726  1.0
  Br  Br7  1  0.72524437  0.50321963  0.41447728  1.0
  Br  Br8  1  0.30002756  0.56906196  0.13297659  1.0
  Br  Br9  1  0.69997265  0.93093825  0.13297657  1.0
  Br  Br10  1  0.69993805  0.43091578  0.86704840  1.0
  Br  Br11  1  0.30006176  0.06908407  0.86704846  1.0
