# generated using pymatgen
data_TbIO
_symmetry_space_group_name_H-M   'P 1'
_cell_length_a   4.45308326
_cell_length_b   4.45308321
_cell_length_c   4.45308344
_cell_angle_alpha   59.99999652
_cell_angle_beta   59.99999249
_cell_angle_gamma   60.00000042
_symmetry_Int_Tables_number   1
_chemical_formula_structural   TbIO
_chemical_formula_sum   'Tb1 I1 O1'
_cell_volume   62.44065153
_cell_formula_units_Z   1
loop_
 _symmetry_equiv_pos_site_id
 _symmetry_equiv_pos_as_xyz
  1  'x, y, z'
loop_
 _atom_site_type_symbol
 _atom_site_label
 _atom_site_symmetry_multiplicity
 _atom_site_fract_x
 _atom_site_fract_y
 _atom_site_fract_z
 _atom_site_occupancy
  Tb  Tb0  1  0.75000003  0.74999999  0.74999998  1.0
  I  I1  1  0.25000000  0.25000001  0.25000001  1.0
  O  O2  1  0.99999997  0.00000000  0.00000002  1.0
