# generated using pymatgen
data_TbMnTe4
_symmetry_space_group_name_H-M   'P 1'
_cell_length_a   6.44780292
_cell_length_b   7.28872977
_cell_length_c   7.42149202
_cell_angle_alpha   89.99852331
_cell_angle_beta   89.99903092
_cell_angle_gamma   104.10159665
_symmetry_Int_Tables_number   1
_chemical_formula_structural   TbMnTe4
_chemical_formula_sum   'Tb2 Mn2 Te8'
_cell_volume   338.27212875
_cell_formula_units_Z   2
loop_
 _symmetry_equiv_pos_site_id
 _symmetry_equiv_pos_as_xyz
  1  'x, y, z'
loop_
 _atom_site_type_symbol
 _atom_site_label
 _atom_site_symmetry_multiplicity
 _atom_site_fract_x
 _atom_site_fract_y
 _atom_site_fract_z
 _atom_site_occupancy
  Tb  Tb0  1  0.00000634  0.75000186  0.75889100  1.0
  Tb  Tb1  1  0.99999240  0.24999895  0.24110652  1.0
  Mn  Mn2  1  0.50000646  0.75000462  0.35164729  1.0
  Mn  Mn3  1  0.49999371  0.24999693  0.64835550  1.0
  Te  Te4  1  0.76572862  0.35814025  0.90497800  1.0
  Te  Te5  1  0.23427194  0.64185897  0.09502419  1.0
  Te  Te6  1  0.23425306  0.14186557  0.90497527  1.0
  Te  Te7  1  0.76574630  0.85813230  0.09502763  1.0
  Te  Te8  1  0.73427711  0.01229669  0.56786445  1.0
  Te  Te9  1  0.26572586  0.98770309  0.43213215  1.0
  Te  Te10  1  0.26571811  0.48770067  0.56785293  1.0
  Te  Te11  1  0.73428009  0.51230011  0.43214507  1.0
