# generated using pymatgen
data_TbSnS4
_symmetry_space_group_name_H-M   'P 1'
_cell_length_a   6.50368454
_cell_length_b   6.83459676
_cell_length_c   6.37277844
_cell_angle_alpha   90.00263149
_cell_angle_beta   89.99848902
_cell_angle_gamma   78.97251740
_symmetry_Int_Tables_number   1
_chemical_formula_structural   TbSnS4
_chemical_formula_sum   'Tb2 Sn2 S8'
_cell_volume   278.03995882
_cell_formula_units_Z   2
loop_
 _symmetry_equiv_pos_site_id
 _symmetry_equiv_pos_as_xyz
  1  'x, y, z'
loop_
 _atom_site_type_symbol
 _atom_site_label
 _atom_site_symmetry_multiplicity
 _atom_site_fract_x
 _atom_site_fract_y
 _atom_site_fract_z
 _atom_site_occupancy
  Tb  Tb0  1  0.50000156  0.25000271  0.73290589  1.0
  Tb  Tb1  1  0.50000044  0.74999396  0.26709418  1.0
  Sn  Sn2  1  0.99999426  0.75000204  0.82994939  1.0
  Sn  Sn3  1  0.00000177  0.25000047  0.17005054  1.0
  S  S4  1  0.74582132  0.92064492  0.56238750  1.0
  S  S5  1  0.25418057  0.57935535  0.56238590  1.0
  S  S6  1  0.25417741  0.07935741  0.43761504  1.0
  S  S7  1  0.74581822  0.42064719  0.43761179  1.0
  S  S8  1  0.24874173  0.50060280  0.07656386  1.0
  S  S9  1  0.75125453  0.99939780  0.07657270  1.0
  S  S10  1  0.75126054  0.49939509  0.92343542  1.0
  S  S11  1  0.24874764  0.00060027  0.92342778  1.0
