# generated using pymatgen
data_TbTlSb2
_symmetry_space_group_name_H-M   'P 1'
_cell_length_a   5.46307348
_cell_length_b   5.46307340
_cell_length_c   5.46307433
_cell_angle_alpha   59.99998508
_cell_angle_beta   60.00000684
_cell_angle_gamma   59.99998358
_symmetry_Int_Tables_number   1
_chemical_formula_structural   TbTlSb2
_chemical_formula_sum   'Tb1 Tl1 Sb2'
_cell_volume   115.29118653
_cell_formula_units_Z   1
loop_
 _symmetry_equiv_pos_site_id
 _symmetry_equiv_pos_as_xyz
  1  'x, y, z'
loop_
 _atom_site_type_symbol
 _atom_site_label
 _atom_site_symmetry_multiplicity
 _atom_site_fract_x
 _atom_site_fract_y
 _atom_site_fract_z
 _atom_site_occupancy
  Tb  Tb0  1  0.50000000  0.49999999  0.50000002  1.0
  Tl  Tl1  1  0.00000000  0.00000000  0.99999999  1.0
  Sb  Sb2  1  0.74999999  0.75000001  0.75000000  1.0
  Sb  Sb3  1  0.25000000  0.25000000  0.24999999  1.0
