# generated using pymatgen
data_Te4PdPb
_symmetry_space_group_name_H-M   'P 1'
_cell_length_a   5.83282298
_cell_length_b   7.79811808
_cell_length_c   8.47689417
_cell_angle_alpha   90.00031466
_cell_angle_beta   90.00036688
_cell_angle_gamma   83.44599920
_symmetry_Int_Tables_number   1
_chemical_formula_structural   Te4PdPb
_chemical_formula_sum   'Te8 Pd2 Pb2'
_cell_volume   383.05207044
_cell_formula_units_Z   2
loop_
 _symmetry_equiv_pos_site_id
 _symmetry_equiv_pos_as_xyz
  1  'x, y, z'
loop_
 _atom_site_type_symbol
 _atom_site_label
 _atom_site_symmetry_multiplicity
 _atom_site_fract_x
 _atom_site_fract_y
 _atom_site_fract_z
 _atom_site_occupancy
  Te  Te0  1  0.64719290  0.45582196  0.86890461  1.0
  Te  Te1  1  0.35281675  0.54419048  0.13110212  1.0
  Te  Te2  1  0.35280821  0.04417658  0.86890523  1.0
  Te  Te3  1  0.64718217  0.95581095  0.13110152  1.0
  Te  Te4  1  0.77912178  0.95219593  0.56260195  1.0
  Te  Te5  1  0.22088176  0.04776785  0.43738513  1.0
  Te  Te6  1  0.22087861  0.54780560  0.56259957  1.0
  Te  Te7  1  0.77911779  0.45223074  0.43738747  1.0
  Pd  Pd8  1  0.50000114  0.75000006  0.40024646  1.0
  Pd  Pd9  1  0.49999891  0.24999987  0.59976552  1.0
  Pb  Pb10  1  0.00000100  0.74999971  0.88772089  1.0
  Pb  Pb11  1  0.99999898  0.25000028  0.11227955  1.0
