# generated using pymatgen
data_TiAuS2
_symmetry_space_group_name_H-M   'P 1'
_cell_length_a   3.40740003
_cell_length_b   5.88865157
_cell_length_c   7.83111445
_cell_angle_alpha   75.53003883
_cell_angle_beta   89.99999124
_cell_angle_gamma   89.99999731
_symmetry_Int_Tables_number   1
_chemical_formula_structural   TiAuS2
_chemical_formula_sum   'Ti2 Au2 S4'
_cell_volume   152.14684968
_cell_formula_units_Z   2
loop_
 _symmetry_equiv_pos_site_id
 _symmetry_equiv_pos_as_xyz
  1  'x, y, z'
loop_
 _atom_site_type_symbol
 _atom_site_label
 _atom_site_symmetry_multiplicity
 _atom_site_fract_x
 _atom_site_fract_y
 _atom_site_fract_z
 _atom_site_occupancy
  Ti  Ti0  1  0.00000001  0.00000000  0.50000000  1.0
  Ti  Ti1  1  0.49999999  0.50000000  0.50000001  1.0
  Au  Au2  1  0.99999999  0.50000000  0.00000000  1.0
  Au  Au3  1  0.50000000  0.00000001  0.99999999  1.0
  S  S4  1  0.49999994  0.10246984  0.69089901  1.0
  S  S5  1  0.00000009  0.39702499  0.30949092  1.0
  S  S6  1  0.50000009  0.89753016  0.30910099  1.0
  S  S7  1  0.99999990  0.60297501  0.69050909  1.0
