# generated using pymatgen
data_TiCoP2
_symmetry_space_group_name_H-M   'P 1'
_cell_length_a   3.52961740
_cell_length_b   5.72156312
_cell_length_c   8.78447051
_cell_angle_alpha   91.24422799
_cell_angle_beta   89.99999976
_cell_angle_gamma   90.00000009
_symmetry_Int_Tables_number   1
_chemical_formula_structural   TiCoP2
_chemical_formula_sum   'Ti3 Co3 P6'
_cell_volume   177.35992815
_cell_formula_units_Z   3
loop_
 _symmetry_equiv_pos_site_id
 _symmetry_equiv_pos_as_xyz
  1  'x, y, z'
loop_
 _atom_site_type_symbol
 _atom_site_label
 _atom_site_symmetry_multiplicity
 _atom_site_fract_x
 _atom_site_fract_y
 _atom_site_fract_z
 _atom_site_occupancy
  Ti  Ti0  1  0.99999999  0.49999985  0.50000168  1.0
  Ti  Ti1  1  0.00000000  0.50000083  0.99999948  1.0
  Ti  Ti2  1  0.00000000  0.99999906  0.50000056  1.0
  Co  Co3  1  0.99999999  0.17852501  0.24487376  1.0
  Co  Co4  1  0.00000000  0.82147407  0.75512596  1.0
  Co  Co5  1  0.00000001  0.00000102  0.99999945  1.0
  P  P6  1  0.50000000  0.22070222  0.09001190  1.0
  P  P7  1  0.50000000  0.74734460  0.61128838  1.0
  P  P8  1  0.50000000  0.77929878  0.90998672  1.0
  P  P9  1  0.50000000  0.25265589  0.38871235  1.0
  P  P10  1  0.00000000  0.22239943  0.76155153  1.0
  P  P11  1  0.00000000  0.77759925  0.23844824  1.0
