# generated using pymatgen
data_TiFeP2
_symmetry_space_group_name_H-M   'P 1'
_cell_length_a   4.17890767
_cell_length_b   4.17890720
_cell_length_c   4.17890726
_cell_angle_alpha   59.99998782
_cell_angle_beta   59.99998620
_cell_angle_gamma   59.99999141
_symmetry_Int_Tables_number   1
_chemical_formula_structural   TiFeP2
_chemical_formula_sum   'Ti1 Fe1 P2'
_cell_volume   51.60278305
_cell_formula_units_Z   1
loop_
 _symmetry_equiv_pos_site_id
 _symmetry_equiv_pos_as_xyz
  1  'x, y, z'
loop_
 _atom_site_type_symbol
 _atom_site_label
 _atom_site_symmetry_multiplicity
 _atom_site_fract_x
 _atom_site_fract_y
 _atom_site_fract_z
 _atom_site_occupancy
  Ti  Ti0  1  0.25000007  0.24999994  0.24999996  1.0
  Fe  Fe1  1  0.74999998  0.75000001  0.75000003  1.0
  P  P2  1  0.49999993  0.50000001  0.50000000  1.0
  P  P3  1  0.00000002  0.00000005  0.00000001  1.0
