# generated using pymatgen
data_TiOF2
_symmetry_space_group_name_H-M   'P 1'
_cell_length_a   3.72555188
_cell_length_b   3.72554684
_cell_length_c   3.68281538
_cell_angle_alpha   90.00037781
_cell_angle_beta   90.00008354
_cell_angle_gamma   120.00056611
_symmetry_Int_Tables_number   1
_chemical_formula_structural   TiOF2
_chemical_formula_sum   'Ti1 O1 F2'
_cell_volume   44.26788223
_cell_formula_units_Z   1
loop_
 _symmetry_equiv_pos_site_id
 _symmetry_equiv_pos_as_xyz
  1  'x, y, z'
loop_
 _atom_site_type_symbol
 _atom_site_label
 _atom_site_symmetry_multiplicity
 _atom_site_fract_x
 _atom_site_fract_y
 _atom_site_fract_z
 _atom_site_occupancy
  Ti  Ti0  1  0.00000005  0.00000008  0.00000037  1.0
  O  O1  1  0.99999997  0.99999996  0.49999972  1.0
  F  F2  1  0.33333333  0.66666667  0.96079002  1.0
  F  F3  1  0.66666667  0.33333333  0.03920989  1.0
