# generated using pymatgen
data_TiVF4
_symmetry_space_group_name_H-M   'P 1'
_cell_length_a   5.06070275
_cell_length_b   5.93450160
_cell_length_c   5.22393655
_cell_angle_alpha   90.00016008
_cell_angle_beta   90.98765030
_cell_angle_gamma   89.99996084
_symmetry_Int_Tables_number   1
_chemical_formula_structural   TiVF4
_chemical_formula_sum   'Ti2 V2 F8'
_cell_volume   156.86586449
_cell_formula_units_Z   2
loop_
 _symmetry_equiv_pos_site_id
 _symmetry_equiv_pos_as_xyz
  1  'x, y, z'
loop_
 _atom_site_type_symbol
 _atom_site_label
 _atom_site_symmetry_multiplicity
 _atom_site_fract_x
 _atom_site_fract_y
 _atom_site_fract_z
 _atom_site_occupancy
  Ti  Ti0  1  0.99999824  0.86989300  0.25000203  1.0
  Ti  Ti1  1  0.99999826  0.13010646  0.74999962  1.0
  V  V2  1  0.49999021  0.35688669  0.25000159  1.0
  V  V3  1  0.49998956  0.64311333  0.75000339  1.0
  F  F4  1  0.24964093  0.12098348  0.42574617  1.0
  F  F5  1  0.75037952  0.12098936  0.07425184  1.0
  F  F6  1  0.75037541  0.87901078  0.57425221  1.0
  F  F7  1  0.24964157  0.87901717  0.92574751  1.0
  F  F8  1  0.26655820  0.62263471  0.41061407  1.0
  F  F9  1  0.73343511  0.62263993  0.08938413  1.0
  F  F10  1  0.73343625  0.37735993  0.58938351  1.0
  F  F11  1  0.26655675  0.37736517  0.91061392  1.0
