# generated using pymatgen
data_Tl8SbBr5
_symmetry_space_group_name_H-M   'P 1'
_cell_length_a   9.41363563
_cell_length_b   16.83316945
_cell_length_c   10.07916397
_cell_angle_alpha   73.69751550
_cell_angle_beta   62.15566667
_cell_angle_gamma   90.01198800
_symmetry_Int_Tables_number   1
_chemical_formula_structural   Tl8SbBr5
_chemical_formula_sum   'Tl16 Sb2 Br10'
_cell_volume   1339.13136268
_cell_formula_units_Z   2
loop_
 _symmetry_equiv_pos_site_id
 _symmetry_equiv_pos_as_xyz
  1  'x, y, z'
loop_
 _atom_site_type_symbol
 _atom_site_label
 _atom_site_symmetry_multiplicity
 _atom_site_fract_x
 _atom_site_fract_y
 _atom_site_fract_z
 _atom_site_occupancy
  Tl  Tl0  1  0.39886926  0.13006597  0.70104382  1.0
  Tl  Tl1  1  0.89990514  0.63005005  0.70110887  1.0
  Tl  Tl2  1  0.10008148  0.36997899  0.29885223  1.0
  Tl  Tl3  1  0.60112574  0.86995738  0.29890186  1.0
  Tl  Tl4  1  0.39765642  0.13586099  0.24296567  1.0
  Tl  Tl5  1  0.89804168  0.63600472  0.24297346  1.0
  Tl  Tl6  1  0.85899244  0.13600969  0.24286731  1.0
  Tl  Tl7  1  0.35934009  0.63589938  0.24294541  1.0
  Tl  Tl8  1  0.62871317  0.35879260  0.24175815  1.0
  Tl  Tl9  1  0.12962527  0.85880454  0.24182521  1.0
  Tl  Tl10  1  0.64073297  0.36411123  0.75706589  1.0
  Tl  Tl11  1  0.14103138  0.86397923  0.75715938  1.0
  Tl  Tl12  1  0.87036808  0.14118063  0.75821396  1.0
  Tl  Tl13  1  0.37128223  0.64119246  0.75828248  1.0
  Tl  Tl14  1  0.10192400  0.36400566  0.75704517  1.0
  Tl  Tl15  1  0.60227568  0.86417180  0.75702209  1.0
  Sb  Sb16  1  0.74977071  0.24997579  0.00000569  1.0
  Sb  Sb17  1  0.25022483  0.74999675  0.00005631  1.0
  Br  Br18  1  0.71707103  0.56838400  0.06623008  1.0
  Br  Br19  1  0.78325050  0.93156216  0.93376047  1.0
  Br  Br20  1  0.74937394  0.25002681  0.50012772  1.0
  Br  Br21  1  0.00002825  0.50001800  0.49998140  1.0
  Br  Br22  1  0.24946697  0.24999313  0.49983663  1.0
  Br  Br23  1  0.21676895  0.06838182  0.06617742  1.0
  Br  Br24  1  0.28300201  0.43155828  0.93372358  1.0
  Br  Br25  1  0.25062826  0.74997307  0.49993059  1.0
  Br  Br26  1  0.49997592  0.00001619  0.49996885  1.0
  Br  Br27  1  0.75047659  0.75004667  0.50016930  1.0
