# generated using pymatgen
data_TlAgF2
_symmetry_space_group_name_H-M   'P 1'
_cell_length_a   3.80858367
_cell_length_b   6.87042152
_cell_length_c   6.25409571
_cell_angle_alpha   67.33312654
_cell_angle_beta   90.67656292
_cell_angle_gamma   87.54868984
_symmetry_Int_Tables_number   1
_chemical_formula_structural   TlAgF2
_chemical_formula_sum   'Tl2 Ag2 F4'
_cell_volume   150.79901121
_cell_formula_units_Z   2
loop_
 _symmetry_equiv_pos_site_id
 _symmetry_equiv_pos_as_xyz
  1  'x, y, z'
loop_
 _atom_site_type_symbol
 _atom_site_label
 _atom_site_symmetry_multiplicity
 _atom_site_fract_x
 _atom_site_fract_y
 _atom_site_fract_z
 _atom_site_occupancy
  Tl  Tl0  1  0.50000004  0.00000004  0.49999958  1.0
  Tl  Tl1  1  0.99999992  0.49999990  0.50000039  1.0
  Ag  Ag2  1  0.49999977  0.50000045  0.99999976  1.0
  Ag  Ag3  1  0.00000010  0.99999967  0.00000002  1.0
  F  F4  1  0.96979773  0.27533566  0.21395693  1.0
  F  F5  1  0.03020300  0.72466462  0.78604324  1.0
  F  F6  1  0.46993948  0.77573953  0.21346259  1.0
  F  F7  1  0.53005995  0.22426013  0.78653749  1.0
