# generated using pymatgen
data_TlAgCl2
_symmetry_space_group_name_H-M   'P 1'
_cell_length_a   4.25090581
_cell_length_b   4.25090639
_cell_length_c   20.99797451
_cell_angle_alpha   90.00000195
_cell_angle_beta   89.99999591
_cell_angle_gamma   120.00014158
_symmetry_Int_Tables_number   1
_chemical_formula_structural   TlAgCl2
_chemical_formula_sum   'Tl3 Ag3 Cl6'
_cell_volume   328.60217965
_cell_formula_units_Z   3
loop_
 _symmetry_equiv_pos_site_id
 _symmetry_equiv_pos_as_xyz
  1  'x, y, z'
loop_
 _atom_site_type_symbol
 _atom_site_label
 _atom_site_symmetry_multiplicity
 _atom_site_fract_x
 _atom_site_fract_y
 _atom_site_fract_z
 _atom_site_occupancy
  Tl  Tl0  1  0.33333333  0.66666667  0.19609894  1.0
  Tl  Tl1  1  0.66666667  0.33333333  0.80390106  1.0
  Tl  Tl2  1  0.00000001  0.00000000  0.00000000  1.0
  Ag  Ag3  1  0.66666667  0.33333333  0.36264821  1.0
  Ag  Ag4  1  0.33333333  0.66666667  0.63735179  1.0
  Ag  Ag5  1  0.99999999  0.00000000  0.50000000  1.0
  Cl  Cl6  1  0.66666667  0.33333333  0.09798408  1.0
  Cl  Cl7  1  0.33333333  0.66666667  0.90201592  1.0
  Cl  Cl8  1  0.66666667  0.33333333  0.56907398  1.0
  Cl  Cl9  1  0.33333333  0.66666667  0.43092602  1.0
  Cl  Cl10  1  0.00000080  0.99999928  0.29428697  1.0
  Cl  Cl11  1  0.99999919  0.00000071  0.70571303  1.0
