# generated using pymatgen
data_TlAsI4
_symmetry_space_group_name_H-M   'P 1'
_cell_length_a   8.10230775
_cell_length_b   7.91345731
_cell_length_c   8.92553805
_cell_angle_alpha   89.97750114
_cell_angle_beta   90.02614895
_cell_angle_gamma   75.60991801
_symmetry_Int_Tables_number   1
_chemical_formula_structural   TlAsI4
_chemical_formula_sum   'Tl2 As2 I8'
_cell_volume   554.32633283
_cell_formula_units_Z   2
loop_
 _symmetry_equiv_pos_site_id
 _symmetry_equiv_pos_as_xyz
  1  'x, y, z'
loop_
 _atom_site_type_symbol
 _atom_site_label
 _atom_site_symmetry_multiplicity
 _atom_site_fract_x
 _atom_site_fract_y
 _atom_site_fract_z
 _atom_site_occupancy
  Tl  Tl0  1  0.50000250  0.74998695  0.34822486  1.0
  Tl  Tl1  1  0.49999748  0.25001304  0.65177517  1.0
  As  As2  1  0.00007454  0.74994842  0.65944920  1.0
  As  As3  1  0.99992533  0.25005165  0.34055114  1.0
  I  I4  1  0.79391907  0.93724458  0.86418783  1.0
  I  I5  1  0.20608119  0.06275526  0.13581194  1.0
  I  I6  1  0.20600517  0.56280993  0.86413445  1.0
  I  I7  1  0.79399471  0.43719010  0.13586537  1.0
  I  I8  1  0.78646427  0.50430049  0.61593098  1.0
  I  I9  1  0.21353572  0.49569964  0.38406904  1.0
  I  I10  1  0.21350055  0.99569366  0.61597148  1.0
  I  I11  1  0.78649947  0.00430627  0.38402855  1.0
