# generated using pymatgen
data_TlAsO4
_symmetry_space_group_name_H-M   'P 1'
_cell_length_a   5.46582194
_cell_length_b   6.39336449
_cell_length_c   10.35050805
_cell_angle_alpha   75.31312428
_cell_angle_beta   89.99997030
_cell_angle_gamma   89.99998343
_symmetry_Int_Tables_number   1
_chemical_formula_structural   TlAsO4
_chemical_formula_sum   'Tl4 As4 O16'
_cell_volume   349.88023287
_cell_formula_units_Z   4
loop_
 _symmetry_equiv_pos_site_id
 _symmetry_equiv_pos_as_xyz
  1  'x, y, z'
loop_
 _atom_site_type_symbol
 _atom_site_label
 _atom_site_symmetry_multiplicity
 _atom_site_fract_x
 _atom_site_fract_y
 _atom_site_fract_z
 _atom_site_occupancy
  Tl  Tl0  1  0.07246251  0.99999966  0.25000046  1.0
  Tl  Tl1  1  0.34397339  0.49999981  0.74999974  1.0
  Tl  Tl2  1  0.65602635  0.50000025  0.25000016  1.0
  Tl  Tl3  1  0.92753762  0.00000032  0.74999953  1.0
  As  As4  1  0.79918815  0.71208148  0.55859317  1.0
  As  As5  1  0.20081085  0.28791737  0.44140867  1.0
  As  As6  1  0.79919090  0.28791801  0.94140936  1.0
  As  As7  1  0.20080983  0.71208226  0.05859063  1.0
  O  O8  1  0.64500334  0.09678990  0.87980229  1.0
  O  O9  1  0.34036848  0.53465087  0.38302733  1.0
  O  O10  1  0.90880972  0.73834677  0.12331313  1.0
  O  O11  1  0.09119045  0.73834697  0.62331247  1.0
  O  O12  1  0.34036907  0.46534799  0.11697303  1.0
  O  O13  1  0.35499577  0.90320960  0.12019784  1.0
  O  O14  1  0.64500526  0.90321007  0.62019719  1.0
  O  O15  1  0.17571780  0.24291128  0.61302127  1.0
  O  O16  1  0.09119016  0.26165306  0.87668714  1.0
  O  O17  1  0.82428289  0.24291159  0.11302140  1.0
  O  O18  1  0.35499491  0.09678939  0.37980226  1.0
  O  O19  1  0.82428255  0.75708925  0.38697722  1.0
  O  O20  1  0.65963102  0.53465234  0.88302728  1.0
  O  O21  1  0.17571732  0.75708812  0.88697940  1.0
  O  O22  1  0.90880931  0.26165339  0.37668708  1.0
  O  O23  1  0.65963235  0.46535026  0.61697197  1.0
