# generated using pymatgen
data_TlI2Br
_symmetry_space_group_name_H-M   'P 1'
_cell_length_a   4.51339366
_cell_length_b   4.51343277
_cell_length_c   8.54346848
_cell_angle_alpha   90.00302931
_cell_angle_beta   89.99590290
_cell_angle_gamma   120.00192306
_symmetry_Int_Tables_number   1
_chemical_formula_structural   TlI2Br
_chemical_formula_sum   'Tl1 I2 Br1'
_cell_volume   150.71852255
_cell_formula_units_Z   1
loop_
 _symmetry_equiv_pos_site_id
 _symmetry_equiv_pos_as_xyz
  1  'x, y, z'
loop_
 _atom_site_type_symbol
 _atom_site_label
 _atom_site_symmetry_multiplicity
 _atom_site_fract_x
 _atom_site_fract_y
 _atom_site_fract_z
 _atom_site_occupancy
  Tl  Tl0  1  0.00000001  0.99999997  0.49999975  1.0
  I  I1  1  0.66666667  0.33333333  0.72343956  1.0
  I  I2  1  0.33333333  0.66666667  0.27656056  1.0
  Br  Br3  1  0.99999999  0.00000006  0.00000012  1.0
