# generated using pymatgen
data_TlWCl4
_symmetry_space_group_name_H-M   'P 1'
_cell_length_a   8.40797987
_cell_length_b   6.71675504
_cell_length_c   6.54357531
_cell_angle_alpha   90.85115065
_cell_angle_beta   90.00000862
_cell_angle_gamma   89.99998247
_symmetry_Int_Tables_number   1
_chemical_formula_structural   TlWCl4
_chemical_formula_sum   'Tl2 W2 Cl8'
_cell_volume   369.50332933
_cell_formula_units_Z   2
loop_
 _symmetry_equiv_pos_site_id
 _symmetry_equiv_pos_as_xyz
  1  'x, y, z'
loop_
 _atom_site_type_symbol
 _atom_site_label
 _atom_site_symmetry_multiplicity
 _atom_site_fract_x
 _atom_site_fract_y
 _atom_site_fract_z
 _atom_site_occupancy
  Tl  Tl0  1  0.63718123  0.50000004  0.24999997  1.0
  Tl  Tl1  1  0.36281866  0.49999994  0.75000002  1.0
  W  W2  1  0.11586702  0.00000000  0.25000001  1.0
  W  W3  1  0.88413306  0.00000000  0.74999999  1.0
  Cl  Cl4  1  0.09240769  0.80184445  0.92996274  1.0
  Cl  Cl5  1  0.09240759  0.19815560  0.57003731  1.0
  Cl  Cl6  1  0.90759226  0.19815539  0.07003738  1.0
  Cl  Cl7  1  0.90759240  0.80184455  0.42996257  1.0
  Cl  Cl8  1  0.31698336  0.78220660  0.37750356  1.0
  Cl  Cl9  1  0.31698339  0.21779353  0.12249648  1.0
  Cl  Cl10  1  0.68301670  0.21779337  0.62249645  1.0
  Cl  Cl11  1  0.68301665  0.78220653  0.87750352  1.0
