# generated using pymatgen
data_Tm2TeS
_symmetry_space_group_name_H-M   'P 1'
_cell_length_a   6.95459739
_cell_length_b   9.09530856
_cell_length_c   7.19415865
_cell_angle_alpha   74.33780045
_cell_angle_beta   109.06446907
_cell_angle_gamma   75.27495410
_symmetry_Int_Tables_number   1
_chemical_formula_structural   Tm2TeS
_chemical_formula_sum   'Tm8 Te4 S4'
_cell_volume   383.70980898
_cell_formula_units_Z   4
loop_
 _symmetry_equiv_pos_site_id
 _symmetry_equiv_pos_as_xyz
  1  'x, y, z'
loop_
 _atom_site_type_symbol
 _atom_site_label
 _atom_site_symmetry_multiplicity
 _atom_site_fract_x
 _atom_site_fract_y
 _atom_site_fract_z
 _atom_site_occupancy
  Tm  Tm0  1  0.96723350  0.62232006  0.24979796  1.0
  Tm  Tm1  1  0.83137770  0.87189246  0.54442625  1.0
  Tm  Tm2  1  0.29687424  0.87167936  0.08397389  1.0
  Tm  Tm3  1  0.58939474  0.37772664  0.37177910  1.0
  Tm  Tm4  1  0.41060521  0.62227337  0.62822093  1.0
  Tm  Tm5  1  0.70312579  0.12832064  0.91602611  1.0
  Tm  Tm6  1  0.16862232  0.12810752  0.45557375  1.0
  Tm  Tm7  1  0.03276642  0.37767999  0.75020203  1.0
  Te  Te8  1  0.80347093  0.39345806  0.05323239  1.0
  Te  Te9  1  0.42862450  0.14249197  0.17854693  1.0
  Te  Te10  1  0.57137553  0.85750803  0.82145304  1.0
  Te  Te11  1  0.19652909  0.60654192  0.94676761  1.0
  S  S12  1  0.94582037  0.10829490  0.69590290  1.0
  S  S13  1  0.67844402  0.64299989  0.42853382  1.0
  S  S14  1  0.32155596  0.35700012  0.57146618  1.0
  S  S15  1  0.05417966  0.89170507  0.30409711  1.0
