# generated using pymatgen
data_TmAlN2
_symmetry_space_group_name_H-M   'P 1'
_cell_length_a   6.10655624
_cell_length_b   6.10641273
_cell_length_c   10.91089768
_cell_angle_alpha   84.51656991
_cell_angle_beta   84.51583007
_cell_angle_gamma   85.91878596
_symmetry_Int_Tables_number   1
_chemical_formula_structural   TmAlN2
_chemical_formula_sum   'Tm8 Al8 N16'
_cell_volume   402.35155471
_cell_formula_units_Z   8
loop_
 _symmetry_equiv_pos_site_id
 _symmetry_equiv_pos_as_xyz
  1  'x, y, z'
loop_
 _atom_site_type_symbol
 _atom_site_label
 _atom_site_symmetry_multiplicity
 _atom_site_fract_x
 _atom_site_fract_y
 _atom_site_fract_z
 _atom_site_occupancy
  Tm  Tm0  1  0.61854324  0.82684988  0.38383409  1.0
  Tm  Tm1  1  0.17315182  0.38145346  0.11616632  1.0
  Tm  Tm2  1  0.38145676  0.17315012  0.61616592  1.0
  Tm  Tm3  1  0.82684819  0.61854652  0.88383369  1.0
  Tm  Tm4  1  0.31390822  0.88751007  0.11699466  1.0
  Tm  Tm5  1  0.11248992  0.68608633  0.38300444  1.0
  Tm  Tm6  1  0.68609180  0.11248994  0.88300533  1.0
  Tm  Tm7  1  0.88751009  0.31391368  0.61699556  1.0
  Al  Al8  1  0.43496053  0.30094455  0.35108179  1.0
  Al  Al9  1  0.69904757  0.56503867  0.14891237  1.0
  Al  Al10  1  0.56503946  0.69905545  0.64891822  1.0
  Al  Al11  1  0.30095241  0.43496132  0.85108763  1.0
  Al  Al12  1  0.75569077  0.07635881  0.14208117  1.0
  Al  Al13  1  0.92363951  0.24430465  0.35791670  1.0
  Al  Al14  1  0.24430924  0.92364119  0.85791883  1.0
  Al  Al15  1  0.07636050  0.75569536  0.64208330  1.0
  N  N16  1  0.47793172  0.09596819  0.23629933  1.0
  N  N17  1  0.90404153  0.52206258  0.26371330  1.0
  N  N18  1  0.52206829  0.90403181  0.76370067  1.0
  N  N19  1  0.09595845  0.47793742  0.73628670  1.0
  N  N20  1  0.41887657  0.58111671  0.25000323  1.0
  N  N21  1  0.58112341  0.41888331  0.74999678  1.0
  N  N22  1  0.98454027  0.01546540  0.25000616  1.0
  N  N23  1  0.01545974  0.98453461  0.74999384  1.0
  N  N24  1  0.70218374  0.84076052  0.04474810  1.0
  N  N25  1  0.15924183  0.29781661  0.45525532  1.0
  N  N26  1  0.29781628  0.15923948  0.95525189  1.0
  N  N27  1  0.84075816  0.70218339  0.54474468  1.0
  N  N28  1  0.65483725  0.21204405  0.46425351  1.0
  N  N29  1  0.78795384  0.34517061  0.03575093  1.0
  N  N30  1  0.34516275  0.78795598  0.53574649  1.0
  N  N31  1  0.21204615  0.65482937  0.96424906  1.0
