# generated using pymatgen
data_TmBrF
_symmetry_space_group_name_H-M   'P 1'
_cell_length_a   4.35608264
_cell_length_b   4.35608281
_cell_length_c   4.35608264
_cell_angle_alpha   59.99993666
_cell_angle_beta   59.99993333
_cell_angle_gamma   59.99992593
_symmetry_Int_Tables_number   1
_chemical_formula_structural   TmBrF
_chemical_formula_sum   'Tm1 Br1 F1'
_cell_volume   58.44840713
_cell_formula_units_Z   1
loop_
 _symmetry_equiv_pos_site_id
 _symmetry_equiv_pos_as_xyz
  1  'x, y, z'
loop_
 _atom_site_type_symbol
 _atom_site_label
 _atom_site_symmetry_multiplicity
 _atom_site_fract_x
 _atom_site_fract_y
 _atom_site_fract_z
 _atom_site_occupancy
  Tm  Tm0  1  0.00000010  0.99999988  0.99999992  1.0
  Br  Br1  1  0.49999992  0.50000008  0.50000006  1.0
  F  F2  1  0.24999998  0.25000004  0.25000001  1.0
