# generated using pymatgen
data_TmCdSe2
_symmetry_space_group_name_H-M   'P 1'
_cell_length_a   7.14550686
_cell_length_b   8.92809650
_cell_length_c   8.22778555
_cell_angle_alpha   71.76118894
_cell_angle_beta   111.94697572
_cell_angle_gamma   76.75551127
_symmetry_Int_Tables_number   1
_chemical_formula_structural   TmCdSe2
_chemical_formula_sum   'Tm4 Cd4 Se8'
_cell_volume   425.22151782
_cell_formula_units_Z   4
loop_
 _symmetry_equiv_pos_site_id
 _symmetry_equiv_pos_as_xyz
  1  'x, y, z'
loop_
 _atom_site_type_symbol
 _atom_site_label
 _atom_site_symmetry_multiplicity
 _atom_site_fract_x
 _atom_site_fract_y
 _atom_site_fract_z
 _atom_site_occupancy
  Tm  Tm0  1  0.95650702  0.08679827  0.70629819  1.0
  Tm  Tm1  1  0.68444743  0.63017655  0.43628386  1.0
  Tm  Tm2  1  0.31555260  0.36982345  0.56371614  1.0
  Tm  Tm3  1  0.04349299  0.91320171  0.29370181  1.0
  Cd  Cd4  1  0.83060160  0.34430645  0.07794353  1.0
  Cd  Cd5  1  0.41612688  0.16875312  0.16303685  1.0
  Cd  Cd6  1  0.58387294  0.83124689  0.83696329  1.0
  Cd  Cd7  1  0.16939852  0.65569357  0.92205642  1.0
  Se  Se8  1  0.92708853  0.63419466  0.23065782  1.0
  Se  Se9  1  0.78754032  0.91002379  0.48870326  1.0
  Se  Se10  1  0.30216416  0.90745019  0.10214043  1.0
  Se  Se11  1  0.56162938  0.36831515  0.36214066  1.0
  Se  Se12  1  0.43837064  0.63168484  0.63785932  1.0
  Se  Se13  1  0.69783586  0.09254982  0.89785956  1.0
  Se  Se14  1  0.21245968  0.08997620  0.51129672  1.0
  Se  Se15  1  0.07291148  0.36580534  0.76934215  1.0
