# generated using pymatgen
data_TmCrI4
_symmetry_space_group_name_H-M   'P 1'
_cell_length_a   6.99420676
_cell_length_b   7.40650057
_cell_length_c   8.66611951
_cell_angle_alpha   90.00060223
_cell_angle_beta   89.99941089
_cell_angle_gamma   94.60594150
_symmetry_Int_Tables_number   1
_chemical_formula_structural   TmCrI4
_chemical_formula_sum   'Tm2 Cr2 I8'
_cell_volume   447.47770496
_cell_formula_units_Z   2
loop_
 _symmetry_equiv_pos_site_id
 _symmetry_equiv_pos_as_xyz
  1  'x, y, z'
loop_
 _atom_site_type_symbol
 _atom_site_label
 _atom_site_symmetry_multiplicity
 _atom_site_fract_x
 _atom_site_fract_y
 _atom_site_fract_z
 _atom_site_occupancy
  Tm  Tm0  1  0.49999971  0.74999980  0.36209349  1.0
  Tm  Tm1  1  0.50000031  0.25000022  0.63790613  1.0
  Cr  Cr2  1  0.00000001  0.74999883  0.86996090  1.0
  Cr  Cr3  1  0.99999998  0.25000113  0.13004225  1.0
  I  I4  1  0.75980265  0.42279749  0.87974834  1.0
  I  I5  1  0.24019743  0.57720249  0.12025091  1.0
  I  I6  1  0.24019638  0.07720292  0.87974972  1.0
  I  I7  1  0.75980358  0.92279715  0.12024951  1.0
  I  I8  1  0.74306815  0.93144099  0.61758865  1.0
  I  I9  1  0.25693174  0.06855904  0.38241073  1.0
  I  I10  1  0.25693015  0.56855823  0.61759060  1.0
  I  I11  1  0.74306991  0.43144170  0.38240879  1.0
