# generated using pymatgen
data_TmCrP2
_symmetry_space_group_name_H-M   'P 1'
_cell_length_a   4.45377373
_cell_length_b   4.45377296
_cell_length_c   4.45377372
_cell_angle_alpha   60.00001830
_cell_angle_beta   59.99999956
_cell_angle_gamma   60.00001057
_symmetry_Int_Tables_number   1
_chemical_formula_structural   TmCrP2
_chemical_formula_sum   'Tm1 Cr1 P2'
_cell_volume   62.46970677
_cell_formula_units_Z   1
loop_
 _symmetry_equiv_pos_site_id
 _symmetry_equiv_pos_as_xyz
  1  'x, y, z'
loop_
 _atom_site_type_symbol
 _atom_site_label
 _atom_site_symmetry_multiplicity
 _atom_site_fract_x
 _atom_site_fract_y
 _atom_site_fract_z
 _atom_site_occupancy
  Tm  Tm0  1  0.99999999  0.00000001  0.00000000  1.0
  Cr  Cr1  1  0.50000000  0.50000004  0.49999999  1.0
  P  P2  1  0.75000001  0.74999999  0.74999999  1.0
  P  P3  1  0.25000000  0.24999996  0.25000001  1.0
