# generated using pymatgen
data_TmHfAs2
_symmetry_space_group_name_H-M   'P 1'
_cell_length_a   4.84919510
_cell_length_b   4.84919538
_cell_length_c   4.84919833
_cell_angle_alpha   59.99995896
_cell_angle_beta   59.99994055
_cell_angle_gamma   60.00002360
_symmetry_Int_Tables_number   1
_chemical_formula_structural   TmHfAs2
_chemical_formula_sum   'Tm1 Hf1 As2'
_cell_volume   80.62951308
_cell_formula_units_Z   1
loop_
 _symmetry_equiv_pos_site_id
 _symmetry_equiv_pos_as_xyz
  1  'x, y, z'
loop_
 _atom_site_type_symbol
 _atom_site_label
 _atom_site_symmetry_multiplicity
 _atom_site_fract_x
 _atom_site_fract_y
 _atom_site_fract_z
 _atom_site_occupancy
  Tm  Tm0  1  0.99999995  0.00000006  0.00000000  1.0
  Hf  Hf1  1  0.50000001  0.49999997  0.49999989  1.0
  As  As2  1  0.25000001  0.25000001  0.25000012  1.0
  As  As3  1  0.75000003  0.74999996  0.74999999  1.0
