# generated using pymatgen
data_TmLuSb2
_symmetry_space_group_name_H-M   'P 1'
_cell_length_a   5.30454020
_cell_length_b   5.30453791
_cell_length_c   5.30454182
_cell_angle_alpha   60.00000359
_cell_angle_beta   60.00001977
_cell_angle_gamma   60.00003052
_symmetry_Int_Tables_number   1
_chemical_formula_structural   TmLuSb2
_chemical_formula_sum   'Tm1 Lu1 Sb2'
_cell_volume   105.54273866
_cell_formula_units_Z   1
loop_
 _symmetry_equiv_pos_site_id
 _symmetry_equiv_pos_as_xyz
  1  'x, y, z'
loop_
 _atom_site_type_symbol
 _atom_site_label
 _atom_site_symmetry_multiplicity
 _atom_site_fract_x
 _atom_site_fract_y
 _atom_site_fract_z
 _atom_site_occupancy
  Tm  Tm0  1  0.75000020  0.74999999  0.75000004  1.0
  Lu  Lu1  1  0.25000053  0.25000073  0.25000076  1.0
  Sb  Sb2  1  0.49999919  0.49999921  0.49999913  1.0
  Sb  Sb3  1  0.00000009  0.00000007  0.00000007  1.0
