# generated using pymatgen
data_TmMoCl4
_symmetry_space_group_name_H-M   'P 1'
_cell_length_a   6.95909728
_cell_length_b   6.74862569
_cell_length_c   8.64610328
_cell_angle_alpha   89.99999022
_cell_angle_beta   89.99984347
_cell_angle_gamma   75.02972056
_symmetry_Int_Tables_number   1
_chemical_formula_structural   TmMoCl4
_chemical_formula_sum   'Tm2 Mo2 Cl8'
_cell_volume   392.27691013
_cell_formula_units_Z   2
loop_
 _symmetry_equiv_pos_site_id
 _symmetry_equiv_pos_as_xyz
  1  'x, y, z'
loop_
 _atom_site_type_symbol
 _atom_site_label
 _atom_site_symmetry_multiplicity
 _atom_site_fract_x
 _atom_site_fract_y
 _atom_site_fract_z
 _atom_site_occupancy
  Tm  Tm0  1  0.00000027  0.74999883  0.87292383  1.0
  Tm  Tm1  1  0.99999969  0.25000113  0.12707647  1.0
  Mo  Mo2  1  0.49999914  0.24999616  0.67713567  1.0
  Mo  Mo3  1  0.50000072  0.75000404  0.32286419  1.0
  Cl  Cl4  1  0.76914365  0.93312208  0.65297519  1.0
  Cl  Cl5  1  0.23085643  0.56686812  0.65297226  1.0
  Cl  Cl6  1  0.23085658  0.06687780  0.34702504  1.0
  Cl  Cl7  1  0.76914312  0.43313227  0.34702767  1.0
  Cl  Cl8  1  0.21643304  0.51307491  0.08953872  1.0
  Cl  Cl9  1  0.78356306  0.98692732  0.08954117  1.0
  Cl  Cl10  1  0.78356732  0.48692469  0.91046094  1.0
  Cl  Cl11  1  0.21643698  0.01307263  0.91045885  1.0
