# generated using pymatgen
data_TmOsS2
_symmetry_space_group_name_H-M   'P 1'
_cell_length_a   3.74341243
_cell_length_b   3.74341772
_cell_length_c   5.81497840
_cell_angle_alpha   90.00047716
_cell_angle_beta   90.00001555
_cell_angle_gamma   119.99990935
_symmetry_Int_Tables_number   1
_chemical_formula_structural   TmOsS2
_chemical_formula_sum   'Tm1 Os1 S2'
_cell_volume   70.56918538
_cell_formula_units_Z   1
loop_
 _symmetry_equiv_pos_site_id
 _symmetry_equiv_pos_as_xyz
  1  'x, y, z'
loop_
 _atom_site_type_symbol
 _atom_site_label
 _atom_site_symmetry_multiplicity
 _atom_site_fract_x
 _atom_site_fract_y
 _atom_site_fract_z
 _atom_site_occupancy
  Tm  Tm0  1  0.00000005  0.00000003  0.00000001  1.0
  Os  Os1  1  0.00000000  0.00000001  0.49999997  1.0
  S  S2  1  0.66666667  0.33333333  0.69630843  1.0
  S  S3  1  0.33333333  0.66666667  0.30369159  1.0
