# generated using pymatgen
data_TmPdS2
_symmetry_space_group_name_H-M   'P 1'
_cell_length_a   3.75790890
_cell_length_b   10.72224738
_cell_length_c   6.60466913
_cell_angle_alpha   144.21911018
_cell_angle_beta   89.99559255
_cell_angle_gamma   90.00640197
_symmetry_Int_Tables_number   1
_chemical_formula_structural   TmPdS2
_chemical_formula_sum   'Tm2 Pd2 S4'
_cell_volume   155.59895050
_cell_formula_units_Z   2
loop_
 _symmetry_equiv_pos_site_id
 _symmetry_equiv_pos_as_xyz
  1  'x, y, z'
loop_
 _atom_site_type_symbol
 _atom_site_label
 _atom_site_symmetry_multiplicity
 _atom_site_fract_x
 _atom_site_fract_y
 _atom_site_fract_z
 _atom_site_occupancy
  Tm  Tm0  1  0.00000013  0.00000003  0.50000021  1.0
  Tm  Tm1  1  0.00000012  0.50000007  0.50000023  1.0
  Pd  Pd2  1  0.49999994  0.49999999  0.99999979  1.0
  Pd  Pd3  1  0.99999951  0.00000003  0.99999982  1.0
  S  S4  1  0.49997959  0.20508805  0.00025492  1.0
  S  S5  1  0.00000706  0.30527854  0.61098797  1.0
  S  S6  1  0.99999288  0.69472119  0.38901165  1.0
  S  S7  1  0.50002075  0.79491210  0.99974541  1.0
