# generated using pymatgen
data_TmPtF4
_symmetry_space_group_name_H-M   'P 1'
_cell_length_a   6.13754630
_cell_length_b   5.09489009
_cell_length_c   5.55540420
_cell_angle_alpha   89.99787973
_cell_angle_beta   89.99570581
_cell_angle_gamma   99.09232445
_symmetry_Int_Tables_number   1
_chemical_formula_structural   TmPtF4
_chemical_formula_sum   'Tm2 Pt2 F8'
_cell_volume   171.53540507
_cell_formula_units_Z   2
loop_
 _symmetry_equiv_pos_site_id
 _symmetry_equiv_pos_as_xyz
  1  'x, y, z'
loop_
 _atom_site_type_symbol
 _atom_site_label
 _atom_site_symmetry_multiplicity
 _atom_site_fract_x
 _atom_site_fract_y
 _atom_site_fract_z
 _atom_site_occupancy
  Tm  Tm0  1  0.50000236  0.75001896  0.28484693  1.0
  Tm  Tm1  1  0.50000221  0.25000100  0.71515319  1.0
  Pt  Pt2  1  0.00001360  0.75000185  0.93266424  1.0
  Pt  Pt3  1  0.99992555  0.24997242  0.06733306  1.0
  F  F4  1  0.67343775  0.62693586  0.93394347  1.0
  F  F5  1  0.32662622  0.37307823  0.06606527  1.0
  F  F6  1  0.32657817  0.87305978  0.93396846  1.0
  F  F7  1  0.67348821  0.12695493  0.06602553  1.0
  F  F8  1  0.69580327  0.97927548  0.55816662  1.0
  F  F9  1  0.30415915  0.02071492  0.44184857  1.0
  F  F10  1  0.30416433  0.52071972  0.55820267  1.0
  F  F11  1  0.69579919  0.47926684  0.44178198  1.0
