# generated using pymatgen
data_TmRhCl4
_symmetry_space_group_name_H-M   'P 1'
_cell_length_a   5.98071053
_cell_length_b   6.64607653
_cell_length_c   7.36939572
_cell_angle_alpha   89.99975279
_cell_angle_beta   89.99869765
_cell_angle_gamma   91.34879780
_symmetry_Int_Tables_number   1
_chemical_formula_structural   TmRhCl4
_chemical_formula_sum   'Tm2 Rh2 Cl8'
_cell_volume   292.83949502
_cell_formula_units_Z   2
loop_
 _symmetry_equiv_pos_site_id
 _symmetry_equiv_pos_as_xyz
  1  'x, y, z'
loop_
 _atom_site_type_symbol
 _atom_site_label
 _atom_site_symmetry_multiplicity
 _atom_site_fract_x
 _atom_site_fract_y
 _atom_site_fract_z
 _atom_site_occupancy
  Tm  Tm0  1  0.49999779  0.24999954  0.65741064  1.0
  Tm  Tm1  1  0.50000212  0.75000056  0.34258930  1.0
  Rh  Rh2  1  0.99999989  0.74999819  0.86535949  1.0
  Rh  Rh3  1  0.00000024  0.25000179  0.13464071  1.0
  Cl  Cl4  1  0.73802520  0.92331398  0.61489240  1.0
  Cl  Cl5  1  0.26197366  0.57668312  0.61489403  1.0
  Cl  Cl6  1  0.26197462  0.07668608  0.38510756  1.0
  Cl  Cl7  1  0.73802615  0.42331694  0.38510584  1.0
  Cl  Cl8  1  0.23444923  0.57901942  0.11532250  1.0
  Cl  Cl9  1  0.76554755  0.92097979  0.11532448  1.0
  Cl  Cl10  1  0.76555100  0.42098033  0.88467743  1.0
  Cl  Cl11  1  0.23445253  0.07902027  0.88467562  1.0
