# generated using pymatgen
data_TmRuS2
_symmetry_space_group_name_H-M   'P 1'
_cell_length_a   3.71156140
_cell_length_b   3.71156203
_cell_length_c   5.85210083
_cell_angle_alpha   89.99987269
_cell_angle_beta   89.99999108
_cell_angle_gamma   120.00000335
_symmetry_Int_Tables_number   1
_chemical_formula_structural   TmRuS2
_chemical_formula_sum   'Tm1 Ru1 S2'
_cell_volume   69.81613294
_cell_formula_units_Z   1
loop_
 _symmetry_equiv_pos_site_id
 _symmetry_equiv_pos_as_xyz
  1  'x, y, z'
loop_
 _atom_site_type_symbol
 _atom_site_label
 _atom_site_symmetry_multiplicity
 _atom_site_fract_x
 _atom_site_fract_y
 _atom_site_fract_z
 _atom_site_occupancy
  Tm  Tm0  1  0.99999997  0.00000002  0.00000003  1.0
  Ru  Ru1  1  0.00000002  0.99999997  0.50000000  1.0
  S  S2  1  0.66666667  0.33333333  0.70344609  1.0
  S  S3  1  0.33333333  0.66666667  0.29655388  1.0
