# generated using pymatgen
data_TmRuO2
_symmetry_space_group_name_H-M   'P 1'
_cell_length_a   3.28440464
_cell_length_b   3.28440501
_cell_length_c   5.89950638
_cell_angle_alpha   89.99995422
_cell_angle_beta   90.00007257
_cell_angle_gamma   120.00009462
_symmetry_Int_Tables_number   1
_chemical_formula_structural   TmRuO2
_chemical_formula_sum   'Tm1 Ru1 O2'
_cell_volume   55.11366038
_cell_formula_units_Z   1
loop_
 _symmetry_equiv_pos_site_id
 _symmetry_equiv_pos_as_xyz
  1  'x, y, z'
loop_
 _atom_site_type_symbol
 _atom_site_label
 _atom_site_symmetry_multiplicity
 _atom_site_fract_x
 _atom_site_fract_y
 _atom_site_fract_z
 _atom_site_occupancy
  Tm  Tm0  1  0.00000002  0.00000000  0.00000000  1.0
  Ru  Ru1  1  0.99999996  0.00000000  0.49999999  1.0
  O  O2  1  0.66666667  0.33333333  0.80048486  1.0
  O  O3  1  0.33333333  0.66666667  0.19951515  1.0
