# generated using pymatgen
data_TmScN2
_symmetry_space_group_name_H-M   'P 1'
_cell_length_a   5.71539198
_cell_length_b   7.39389849
_cell_length_c   5.72023064
_cell_angle_alpha   74.97585888
_cell_angle_beta   109.27631695
_cell_angle_gamma   74.99931121
_symmetry_Int_Tables_number   1
_chemical_formula_structural   TmScN2
_chemical_formula_sum   'Tm4 Sc4 N8'
_cell_volume   204.04860659
_cell_formula_units_Z   4
loop_
 _symmetry_equiv_pos_site_id
 _symmetry_equiv_pos_as_xyz
  1  'x, y, z'
loop_
 _atom_site_type_symbol
 _atom_site_label
 _atom_site_symmetry_multiplicity
 _atom_site_fract_x
 _atom_site_fract_y
 _atom_site_fract_z
 _atom_site_occupancy
  Tm  Tm0  1  0.93870655  0.12258562  0.68870632  1.0
  Tm  Tm1  1  0.68631378  0.62737445  0.43631331  1.0
  Tm  Tm2  1  0.31368622  0.37262555  0.56368668  1.0
  Tm  Tm3  1  0.06129345  0.87741439  0.31129369  1.0
  Sc  Sc4  1  0.81064523  0.37870807  0.06064522  1.0
  Sc  Sc5  1  0.43549447  0.12900886  0.18549453  1.0
  Sc  Sc6  1  0.56450555  0.87099115  0.81450547  1.0
  Sc  Sc7  1  0.18935479  0.62129190  0.93935480  1.0
  N  N8  1  0.93298195  0.62487217  0.17502982  1.0
  N  N9  1  0.80866886  0.87468009  0.56695892  1.0
  N  N10  1  0.31665177  0.87467963  0.05836139  1.0
  N  N11  1  0.55785366  0.37513019  0.29990112  1.0
  N  N12  1  0.44214633  0.62486983  0.70009884  1.0
  N  N13  1  0.68334822  0.12532037  0.94163861  1.0
  N  N14  1  0.19133112  0.12531991  0.43304109  1.0
  N  N15  1  0.06701804  0.37512783  0.82497017  1.0
