# generated using pymatgen
data_TmTe2Pd
_symmetry_space_group_name_H-M   'P 1'
_cell_length_a   4.16761789
_cell_length_b   11.86269327
_cell_length_c   7.31793152
_cell_angle_alpha   143.74078668
_cell_angle_beta   90.00005844
_cell_angle_gamma   89.99995311
_symmetry_Int_Tables_number   1
_chemical_formula_structural   TmTe2Pd
_chemical_formula_sum   'Tm2 Te4 Pd2'
_cell_volume   213.97829819
_cell_formula_units_Z   2
loop_
 _symmetry_equiv_pos_site_id
 _symmetry_equiv_pos_as_xyz
  1  'x, y, z'
loop_
 _atom_site_type_symbol
 _atom_site_label
 _atom_site_symmetry_multiplicity
 _atom_site_fract_x
 _atom_site_fract_y
 _atom_site_fract_z
 _atom_site_occupancy
  Tm  Tm0  1  0.99999997  0.99999987  0.50000040  1.0
  Tm  Tm1  1  0.99999999  0.50000018  0.50000083  1.0
  Te  Te2  1  0.50000013  0.18926382  0.00028944  1.0
  Te  Te3  1  0.99999998  0.30887146  0.61807443  1.0
  Te  Te4  1  0.99999981  0.69112755  0.38192442  1.0
  Te  Te5  1  0.49999976  0.81073668  0.99971150  1.0
  Pd  Pd6  1  0.49999976  0.50000040  0.99999946  1.0
  Pd  Pd7  1  0.00000060  0.00000003  0.99999951  1.0
