# generated using pymatgen
data_TmZnSe2
_symmetry_space_group_name_H-M   'P 1'
_cell_length_a   4.00519461
_cell_length_b   4.00519439
_cell_length_c   6.44896769
_cell_angle_alpha   89.99982336
_cell_angle_beta   90.00016051
_cell_angle_gamma   120.00029850
_symmetry_Int_Tables_number   1
_chemical_formula_structural   TmZnSe2
_chemical_formula_sum   'Tm1 Zn1 Se2'
_cell_volume   89.59148779
_cell_formula_units_Z   1
loop_
 _symmetry_equiv_pos_site_id
 _symmetry_equiv_pos_as_xyz
  1  'x, y, z'
loop_
 _atom_site_type_symbol
 _atom_site_label
 _atom_site_symmetry_multiplicity
 _atom_site_fract_x
 _atom_site_fract_y
 _atom_site_fract_z
 _atom_site_occupancy
  Tm  Tm0  1  0.00000003  0.00000003  0.99999994  1.0
  Zn  Zn1  1  0.00000001  0.00000002  0.50000000  1.0
  Se  Se2  1  0.66666667  0.33333333  0.74033161  1.0
  Se  Se3  1  0.33333333  0.66666667  0.25966845  1.0
