# generated using pymatgen
data_TmZnSe2
_symmetry_space_group_name_H-M   'P 1'
_cell_length_a   3.62812721
_cell_length_b   3.88616413
_cell_length_c   15.50493282
_cell_angle_alpha   78.92019628
_cell_angle_beta   90.07690534
_cell_angle_gamma   90.01860365
_symmetry_Int_Tables_number   1
_chemical_formula_structural   TmZnSe2
_chemical_formula_sum   'Tm2 Zn2 Se4'
_cell_volume   214.53675119
_cell_formula_units_Z   2
loop_
 _symmetry_equiv_pos_site_id
 _symmetry_equiv_pos_as_xyz
  1  'x, y, z'
loop_
 _atom_site_type_symbol
 _atom_site_label
 _atom_site_symmetry_multiplicity
 _atom_site_fract_x
 _atom_site_fract_y
 _atom_site_fract_z
 _atom_site_occupancy
  Tm  Tm0  1  0.00126430  0.35126692  0.79640837  1.0
  Tm  Tm1  1  0.99875700  0.64859777  0.20346597  1.0
  Zn  Zn2  1  0.00011922  0.81010065  0.57019103  1.0
  Zn  Zn3  1  0.99990969  0.19071481  0.43028383  1.0
  Se  Se4  1  0.50044770  0.41749272  0.65220050  1.0
  Se  Se5  1  0.49919140  0.58066202  0.34754477  1.0
  Se  Se6  1  0.50183685  0.79823917  0.86516244  1.0
  Se  Se7  1  0.49847383  0.20292592  0.13474309  1.0
