# generated using pymatgen
data_VBr2N
_symmetry_space_group_name_H-M   'P 1'
_cell_length_a   7.15387248
_cell_length_b   3.94582286
_cell_length_c   7.66337209
_cell_angle_alpha   104.93566554
_cell_angle_beta   103.47801130
_cell_angle_gamma   89.99868728
_symmetry_Int_Tables_number   1
_chemical_formula_structural   VBr2N
_chemical_formula_sum   'V2 Br4 N2'
_cell_volume   202.84096015
_cell_formula_units_Z   2
loop_
 _symmetry_equiv_pos_site_id
 _symmetry_equiv_pos_as_xyz
  1  'x, y, z'
loop_
 _atom_site_type_symbol
 _atom_site_label
 _atom_site_symmetry_multiplicity
 _atom_site_fract_x
 _atom_site_fract_y
 _atom_site_fract_z
 _atom_site_occupancy
  V  V0  1  0.99999597  0.91873532  0.99990594  1.0
  V  V1  1  0.50000431  0.08125985  0.00009406  1.0
  Br  Br2  1  0.18786135  0.87509137  0.75079586  1.0
  Br  Br3  1  0.31213567  0.12490961  0.24920415  1.0
  Br  Br4  1  0.68770186  0.87544292  0.75082812  1.0
  Br  Br5  1  0.81230096  0.12455886  0.24917186  1.0
  N  N6  1  0.50001162  0.48621025  0.00018375  1.0
  N  N7  1  0.99998826  0.51379182  0.99981626  1.0
