# generated using pymatgen
data_VBrF2
_symmetry_space_group_name_H-M   'P 1'
_cell_length_a   3.66869287
_cell_length_b   6.38953478
_cell_length_c   6.39168384
_cell_angle_alpha   60.18598210
_cell_angle_beta   89.98678471
_cell_angle_gamma   73.30599390
_symmetry_Int_Tables_number   1
_chemical_formula_structural   VBrF2
_chemical_formula_sum   'V2 Br2 F4'
_cell_volume   122.67264038
_cell_formula_units_Z   2
loop_
 _symmetry_equiv_pos_site_id
 _symmetry_equiv_pos_as_xyz
  1  'x, y, z'
loop_
 _atom_site_type_symbol
 _atom_site_label
 _atom_site_symmetry_multiplicity
 _atom_site_fract_x
 _atom_site_fract_y
 _atom_site_fract_z
 _atom_site_occupancy
  V  V0  1  0.50001959  0.00000011  0.49999947  1.0
  V  V1  1  0.00002383  0.99999977  0.00000115  1.0
  Br  Br2  1  0.24995976  0.50000965  0.24999869  1.0
  Br  Br3  1  0.74996775  0.49999038  0.75000039  1.0
  F  F4  1  0.45928927  0.08153129  0.12565780  1.0
  F  F5  1  0.95927669  0.08154882  0.62568566  1.0
  F  F6  1  0.54071880  0.91846904  0.87434217  1.0
  F  F7  1  0.04072331  0.91845094  0.37431468  1.0
