# generated using pymatgen
data_VCdCl4
_symmetry_space_group_name_H-M   'P 1'
_cell_length_a   7.33151200
_cell_length_b   5.90520248
_cell_length_c   6.45439463
_cell_angle_alpha   87.19172380
_cell_angle_beta   89.99999966
_cell_angle_gamma   89.99999957
_symmetry_Int_Tables_number   1
_chemical_formula_structural   VCdCl4
_chemical_formula_sum   'V2 Cd2 Cl8'
_cell_volume   279.10138270
_cell_formula_units_Z   2
loop_
 _symmetry_equiv_pos_site_id
 _symmetry_equiv_pos_as_xyz
  1  'x, y, z'
loop_
 _atom_site_type_symbol
 _atom_site_label
 _atom_site_symmetry_multiplicity
 _atom_site_fract_x
 _atom_site_fract_y
 _atom_site_fract_z
 _atom_site_occupancy
  V  V0  1  0.86739278  0.00000004  0.74999998  1.0
  V  V1  1  0.13260712  0.99999994  0.24999998  1.0
  Cd  Cd2  1  0.34504129  0.49999998  0.75000000  1.0
  Cd  Cd3  1  0.65495865  0.50000002  0.25000001  1.0
  Cl  Cl4  1  0.10407620  0.77131211  0.93758194  1.0
  Cl  Cl5  1  0.89592386  0.77131226  0.43758192  1.0
  Cl  Cl6  1  0.62520095  0.75242499  0.91040815  1.0
  Cl  Cl7  1  0.37479906  0.75242495  0.41040818  1.0
  Cl  Cl8  1  0.62520095  0.24757500  0.58959181  1.0
  Cl  Cl9  1  0.37479910  0.24757501  0.08959178  1.0
  Cl  Cl10  1  0.10407620  0.22868790  0.56241806  1.0
  Cl  Cl11  1  0.89592385  0.22868780  0.06241819  1.0
