# generated using pymatgen
data_VGeSe4
_symmetry_space_group_name_H-M   'P 1'
_cell_length_a   7.61967429
_cell_length_b   5.53768242
_cell_length_c   6.37887268
_cell_angle_alpha   90.13214887
_cell_angle_beta   90.00000369
_cell_angle_gamma   90.00001469
_symmetry_Int_Tables_number   1
_chemical_formula_structural   VGeSe4
_chemical_formula_sum   'V2 Ge2 Se8'
_cell_volume   269.15796243
_cell_formula_units_Z   2
loop_
 _symmetry_equiv_pos_site_id
 _symmetry_equiv_pos_as_xyz
  1  'x, y, z'
loop_
 _atom_site_type_symbol
 _atom_site_label
 _atom_site_symmetry_multiplicity
 _atom_site_fract_x
 _atom_site_fract_y
 _atom_site_fract_z
 _atom_site_occupancy
  V  V0  1  0.83905289  0.00000002  0.75000001  1.0
  V  V1  1  0.16094912  0.00000000  0.24999997  1.0
  Ge  Ge2  1  0.32631641  0.50000009  0.74999981  1.0
  Ge  Ge3  1  0.67366936  0.49999989  0.25000018  1.0
  Se  Se4  1  0.08577120  0.24219805  0.56449252  1.0
  Se  Se5  1  0.91424633  0.24219927  0.06453420  1.0
  Se  Se6  1  0.62154558  0.24239564  0.59738869  1.0
  Se  Se7  1  0.37844299  0.24235244  0.09739135  1.0
  Se  Se8  1  0.62154561  0.75760420  0.90261149  1.0
  Se  Se9  1  0.37844304  0.75764771  0.40260849  1.0
  Se  Se10  1  0.08577117  0.75780190  0.93550750  1.0
  Se  Se11  1  0.91424629  0.75780078  0.43546577  1.0
