# generated using pymatgen
data_VHgF4
_symmetry_space_group_name_H-M   'P 1'
_cell_length_a   5.57432816
_cell_length_b   6.84232314
_cell_length_c   5.23499704
_cell_angle_alpha   89.99270564
_cell_angle_beta   90.06877420
_cell_angle_gamma   90.00388207
_symmetry_Int_Tables_number   1
_chemical_formula_structural   VHgF4
_chemical_formula_sum   'V2 Hg2 F8'
_cell_volume   199.66973230
_cell_formula_units_Z   2
loop_
 _symmetry_equiv_pos_site_id
 _symmetry_equiv_pos_as_xyz
  1  'x, y, z'
loop_
 _atom_site_type_symbol
 _atom_site_label
 _atom_site_symmetry_multiplicity
 _atom_site_fract_x
 _atom_site_fract_y
 _atom_site_fract_z
 _atom_site_occupancy
  V  V0  1  0.49998921  0.37190896  0.25001033  1.0
  V  V1  1  0.50001099  0.62826407  0.74998945  1.0
  Hg  Hg2  1  0.99996180  0.90286946  0.24992856  1.0
  Hg  Hg3  1  0.00003818  0.09712346  0.75007145  1.0
  F  F4  1  0.30400791  0.17741828  0.40776616  1.0
  F  F5  1  0.69591216  0.17744923  0.09230215  1.0
  F  F6  1  0.69595149  0.82252516  0.59228308  1.0
  F  F7  1  0.30412825  0.82249439  0.90764875  1.0
  F  F8  1  0.30152355  0.57936807  0.44405916  1.0
  F  F9  1  0.69849056  0.57936742  0.05592789  1.0
  F  F10  1  0.69848303  0.42060542  0.55592629  1.0
  F  F11  1  0.30150287  0.42060606  0.94408674  1.0
