# generated using pymatgen
data_VI2Cl
_symmetry_space_group_name_H-M   'P 1'
_cell_length_a   6.68668629
_cell_length_b   7.02499622
_cell_length_c   6.68726571
_cell_angle_alpha   83.78266609
_cell_angle_beta   116.71872363
_cell_angle_gamma   65.45234600
_symmetry_Int_Tables_number   1
_chemical_formula_structural   VI2Cl
_chemical_formula_sum   'V2 I4 Cl2'
_cell_volume   237.79734794
_cell_formula_units_Z   2
loop_
 _symmetry_equiv_pos_site_id
 _symmetry_equiv_pos_as_xyz
  1  'x, y, z'
loop_
 _atom_site_type_symbol
 _atom_site_label
 _atom_site_symmetry_multiplicity
 _atom_site_fract_x
 _atom_site_fract_y
 _atom_site_fract_z
 _atom_site_occupancy
  V  V0  1  0.99999969  0.50000012  0.49999987  1.0
  V  V1  1  0.00000027  0.99999998  0.00000013  1.0
  I  I2  1  0.49628266  0.24181116  0.58963946  1.0
  I  I3  1  0.83130625  0.25813691  0.23810855  1.0
  I  I4  1  0.16869385  0.74186271  0.76189128  1.0
  I  I5  1  0.50371691  0.75818919  0.41036059  1.0
  Cl  Cl6  1  0.11401116  0.25013395  0.86414181  1.0
  Cl  Cl7  1  0.88598920  0.74986597  0.13585830  1.0
