# generated using pymatgen
data_VPbBr4
_symmetry_space_group_name_H-M   'P 1'
_cell_length_a   6.68181777
_cell_length_b   7.08661895
_cell_length_c   7.92151853
_cell_angle_alpha   89.99999966
_cell_angle_beta   90.00000815
_cell_angle_gamma   87.25299230
_symmetry_Int_Tables_number   1
_chemical_formula_structural   VPbBr4
_chemical_formula_sum   'V2 Pb2 Br8'
_cell_volume   374.66473041
_cell_formula_units_Z   2
loop_
 _symmetry_equiv_pos_site_id
 _symmetry_equiv_pos_as_xyz
  1  'x, y, z'
loop_
 _atom_site_type_symbol
 _atom_site_label
 _atom_site_symmetry_multiplicity
 _atom_site_fract_x
 _atom_site_fract_y
 _atom_site_fract_z
 _atom_site_occupancy
  V  V0  1  0.00000000  0.75000000  0.62854704  1.0
  V  V1  1  0.00000000  0.24999998  0.37145133  1.0
  Pb  Pb2  1  0.50000001  0.75000001  0.16017634  1.0
  Pb  Pb3  1  0.50000000  0.25000002  0.83982383  1.0
  Br  Br4  1  0.76507201  0.89327036  0.87206348  1.0
  Br  Br5  1  0.23492735  0.10673003  0.12793666  1.0
  Br  Br6  1  0.23492795  0.60672964  0.87206351  1.0
  Br  Br7  1  0.76507263  0.39326995  0.12793669  1.0
  Br  Br8  1  0.78433844  0.44480568  0.59725761  1.0
  Br  Br9  1  0.21566138  0.55519464  0.40274295  1.0
  Br  Br10  1  0.21566158  0.05519434  0.59725757  1.0
  Br  Br11  1  0.78433865  0.94480536  0.40274297  1.0
