# generated using pymatgen
data_VRhF4
_symmetry_space_group_name_H-M   'P 1'
_cell_length_a   4.89354864
_cell_length_b   5.85229802
_cell_length_c   5.58071918
_cell_angle_alpha   90.00000201
_cell_angle_beta   94.86719358
_cell_angle_gamma   89.99999896
_symmetry_Int_Tables_number   1
_chemical_formula_structural   VRhF4
_chemical_formula_sum   'V2 Rh2 F8'
_cell_volume   159.24713739
_cell_formula_units_Z   2
loop_
 _symmetry_equiv_pos_site_id
 _symmetry_equiv_pos_as_xyz
  1  'x, y, z'
loop_
 _atom_site_type_symbol
 _atom_site_label
 _atom_site_symmetry_multiplicity
 _atom_site_fract_x
 _atom_site_fract_y
 _atom_site_fract_z
 _atom_site_occupancy
  V  V0  1  0.50000000  0.34518496  0.25000001  1.0
  V  V1  1  0.50000000  0.65481507  0.74999999  1.0
  Rh  Rh2  1  0.00000001  0.85137697  0.24999998  1.0
  Rh  Rh3  1  0.99999999  0.14862286  0.75000003  1.0
  F  F4  1  0.25020686  0.10580569  0.39859292  1.0
  F  F5  1  0.74979312  0.10580569  0.10140707  1.0
  F  F6  1  0.74979322  0.89419437  0.60140708  1.0
  F  F7  1  0.25020679  0.89419438  0.89859294  1.0
  F  F8  1  0.27076370  0.60609009  0.41147929  1.0
  F  F9  1  0.72923631  0.60609008  0.08852071  1.0
  F  F10  1  0.72923627  0.39390991  0.58852069  1.0
  F  F11  1  0.27076374  0.39390994  0.91147930  1.0
