# generated using pymatgen
data_VSBr
_symmetry_space_group_name_H-M   'P 1'
_cell_length_a   6.98617409
_cell_length_b   6.98642434
_cell_length_c   6.98606174
_cell_angle_alpha   61.00960948
_cell_angle_beta   61.01315803
_cell_angle_gamma   61.01036479
_symmetry_Int_Tables_number   1
_chemical_formula_structural   VSBr
_chemical_formula_sum   'V4 S4 Br4'
_cell_volume   246.59858967
_cell_formula_units_Z   4
loop_
 _symmetry_equiv_pos_site_id
 _symmetry_equiv_pos_as_xyz
  1  'x, y, z'
loop_
 _atom_site_type_symbol
 _atom_site_label
 _atom_site_symmetry_multiplicity
 _atom_site_fract_x
 _atom_site_fract_y
 _atom_site_fract_z
 _atom_site_occupancy
  V  V0  1  0.55384960  0.14527105  0.14525220  1.0
  V  V1  1  0.14526912  0.55384821  0.14526996  1.0
  V  V2  1  0.15450997  0.15449050  0.15451610  1.0
  V  V3  1  0.14525465  0.14527202  0.55384376  1.0
  S  S4  1  0.37329319  0.37329707  0.37329066  1.0
  S  S5  1  0.86960681  0.37897485  0.37899748  1.0
  S  S6  1  0.37899458  0.37898417  0.86960154  1.0
  S  S7  1  0.37897664  0.86960673  0.37898561  1.0
  Br  Br8  1  0.36122279  0.88092317  0.88091420  1.0
  Br  Br9  1  0.87718596  0.87718798  0.87718841  1.0
  Br  Br10  1  0.88091910  0.36122711  0.88091431  1.0
  Br  Br11  1  0.88091559  0.88091714  0.36122477  1.0
