# generated using pymatgen
data_VSiS4
_symmetry_space_group_name_H-M   'P 1'
_cell_length_a   6.70441209
_cell_length_b   5.36882293
_cell_length_c   5.75429633
_cell_angle_alpha   88.60659257
_cell_angle_beta   89.99999734
_cell_angle_gamma   90.00000150
_symmetry_Int_Tables_number   1
_chemical_formula_structural   VSiS4
_chemical_formula_sum   'V2 Si2 S8'
_cell_volume   207.06350542
_cell_formula_units_Z   2
loop_
 _symmetry_equiv_pos_site_id
 _symmetry_equiv_pos_as_xyz
  1  'x, y, z'
loop_
 _atom_site_type_symbol
 _atom_site_label
 _atom_site_symmetry_multiplicity
 _atom_site_fract_x
 _atom_site_fract_y
 _atom_site_fract_z
 _atom_site_occupancy
  V  V0  1  0.90072554  0.99999999  0.74999999  1.0
  V  V1  1  0.09927359  0.00000001  0.25000003  1.0
  Si  Si2  1  0.39216082  0.50000002  0.75000000  1.0
  Si  Si3  1  0.60783976  0.49999998  0.24999999  1.0
  S  S4  1  0.11930432  0.73950883  0.92828539  1.0
  S  S5  1  0.88069556  0.73950622  0.42828690  1.0
  S  S6  1  0.61201104  0.74547810  0.93198739  1.0
  S  S7  1  0.38798925  0.74547734  0.43198766  1.0
  S  S8  1  0.61201104  0.25452189  0.56801262  1.0
  S  S9  1  0.38798924  0.25452266  0.06801231  1.0
  S  S10  1  0.11930431  0.26049120  0.57171461  1.0
  S  S11  1  0.88069553  0.26049376  0.07171311  1.0
