# generated using pymatgen
data_VSnCl4
_symmetry_space_group_name_H-M   'P 1'
_cell_length_a   7.50000803
_cell_length_b   6.24049155
_cell_length_c   6.68703716
_cell_angle_alpha   87.41153998
_cell_angle_beta   90.00000602
_cell_angle_gamma   90.00000170
_symmetry_Int_Tables_number   1
_chemical_formula_structural   VSnCl4
_chemical_formula_sum   'V2 Sn2 Cl8'
_cell_volume   312.65899065
_cell_formula_units_Z   2
loop_
 _symmetry_equiv_pos_site_id
 _symmetry_equiv_pos_as_xyz
  1  'x, y, z'
loop_
 _atom_site_type_symbol
 _atom_site_label
 _atom_site_symmetry_multiplicity
 _atom_site_fract_x
 _atom_site_fract_y
 _atom_site_fract_z
 _atom_site_occupancy
  V  V0  1  0.87192994  0.99999996  0.74999992  1.0
  V  V1  1  0.12807011  0.00000004  0.25000009  1.0
  Sn  Sn2  1  0.34274745  0.50000013  0.75000002  1.0
  Sn  Sn3  1  0.65725257  0.49999988  0.24999999  1.0
  Cl  Cl4  1  0.09804336  0.78395225  0.94407416  1.0
  Cl  Cl5  1  0.90195677  0.78395219  0.44407418  1.0
  Cl  Cl6  1  0.63048793  0.76140486  0.89293326  1.0
  Cl  Cl7  1  0.36951206  0.76140480  0.39293334  1.0
  Cl  Cl8  1  0.63048794  0.23859512  0.60706659  1.0
  Cl  Cl9  1  0.36951207  0.23859519  0.10706675  1.0
  Cl  Cl10  1  0.09804318  0.21604790  0.55592582  1.0
  Cl  Cl11  1  0.90195662  0.21604769  0.05592587  1.0
