# generated using pymatgen
data_VTeCl2
_symmetry_space_group_name_H-M   'P 1'
_cell_length_a   6.56013659
_cell_length_b   6.85184411
_cell_length_c   6.55987581
_cell_angle_alpha   98.98681260
_cell_angle_beta   123.35509378
_cell_angle_gamma   54.05599539
_symmetry_Int_Tables_number   1
_chemical_formula_structural   VTeCl2
_chemical_formula_sum   'V2 Te2 Cl4'
_cell_volume   193.25332836
_cell_formula_units_Z   2
loop_
 _symmetry_equiv_pos_site_id
 _symmetry_equiv_pos_as_xyz
  1  'x, y, z'
loop_
 _atom_site_type_symbol
 _atom_site_label
 _atom_site_symmetry_multiplicity
 _atom_site_fract_x
 _atom_site_fract_y
 _atom_site_fract_z
 _atom_site_occupancy
  V  V0  1  0.99999979  0.50000021  0.49999983  1.0
  V  V1  1  0.00000009  0.99999999  0.00000005  1.0
  Te  Te2  1  0.18828952  0.25034658  0.93862290  1.0
  Te  Te3  1  0.81171046  0.74965344  0.06137692  1.0
  Cl  Cl4  1  0.50655562  0.24592272  0.60781365  1.0
  Cl  Cl5  1  0.85370575  0.25398594  0.25253703  1.0
  Cl  Cl6  1  0.14629429  0.74601402  0.74746309  1.0
  Cl  Cl7  1  0.49344447  0.75407710  0.39218654  1.0
