# generated using pymatgen
data_VWBr4
_symmetry_space_group_name_H-M   'P 1'
_cell_length_a   7.42263550
_cell_length_b   6.04415658
_cell_length_c   6.53523189
_cell_angle_alpha   90.82949253
_cell_angle_beta   90.00000058
_cell_angle_gamma   90.00000096
_symmetry_Int_Tables_number   1
_chemical_formula_structural   VWBr4
_chemical_formula_sum   'V2 W2 Br8'
_cell_volume   293.16311584
_cell_formula_units_Z   2
loop_
 _symmetry_equiv_pos_site_id
 _symmetry_equiv_pos_as_xyz
  1  'x, y, z'
loop_
 _atom_site_type_symbol
 _atom_site_label
 _atom_site_symmetry_multiplicity
 _atom_site_fract_x
 _atom_site_fract_y
 _atom_site_fract_z
 _atom_site_occupancy
  V  V0  1  0.86472398  0.99999999  0.75000002  1.0
  V  V1  1  0.13527716  0.99999999  0.25000003  1.0
  W  W2  1  0.37167357  0.50000000  0.74999999  1.0
  W  W3  1  0.62832639  0.50000001  0.24999998  1.0
  Br  Br4  1  0.12075266  0.75279229  0.91777240  1.0
  Br  Br5  1  0.87924736  0.75279171  0.41777168  1.0
  Br  Br6  1  0.61714912  0.74269755  0.92107670  1.0
  Br  Br7  1  0.38285031  0.74269816  0.42107699  1.0
  Br  Br8  1  0.61714912  0.25730245  0.57892328  1.0
  Br  Br9  1  0.38285032  0.25730181  0.07892298  1.0
  Br  Br10  1  0.12075263  0.24720776  0.58222760  1.0
  Br  Br11  1  0.87924736  0.24720828  0.08222835  1.0
