# generated using pymatgen
data_VWCl4
_symmetry_space_group_name_H-M   'P 1'
_cell_length_a   6.99071449
_cell_length_b   5.69143003
_cell_length_c   6.14388010
_cell_angle_alpha   89.34615057
_cell_angle_beta   89.99999258
_cell_angle_gamma   90.00000112
_symmetry_Int_Tables_number   1
_chemical_formula_structural   VWCl4
_chemical_formula_sum   'V2 W2 Cl8'
_cell_volume   244.43163818
_cell_formula_units_Z   2
loop_
 _symmetry_equiv_pos_site_id
 _symmetry_equiv_pos_as_xyz
  1  'x, y, z'
loop_
 _atom_site_type_symbol
 _atom_site_label
 _atom_site_symmetry_multiplicity
 _atom_site_fract_x
 _atom_site_fract_y
 _atom_site_fract_z
 _atom_site_occupancy
  V  V0  1  0.63638394  0.49999995  0.25000002  1.0
  V  V1  1  0.36361617  0.50000003  0.75000000  1.0
  W  W2  1  0.12792055  0.00000001  0.25000000  1.0
  W  W3  1  0.87207946  0.99999998  0.75000000  1.0
  Cl  Cl4  1  0.12046914  0.75733196  0.91735686  1.0
  Cl  Cl5  1  0.12046916  0.24266812  0.58264312  1.0
  Cl  Cl6  1  0.87953065  0.24266814  0.08264289  1.0
  Cl  Cl7  1  0.87953057  0.75733187  0.41735704  1.0
  Cl  Cl8  1  0.37758016  0.74518660  0.41698962  1.0
  Cl  Cl9  1  0.37758020  0.25481337  0.08301036  1.0
  Cl  Cl10  1  0.62242000  0.25481411  0.58301075  1.0
  Cl  Cl11  1  0.62242000  0.74518585  0.91698932  1.0
