# generated using pymatgen
data_Y2SbN
_symmetry_space_group_name_H-M   'P 1'
_cell_length_a   4.97554954
_cell_length_b   4.97555146
_cell_length_c   4.97555024
_cell_angle_alpha   59.99988902
_cell_angle_beta   59.99989463
_cell_angle_gamma   59.99989795
_symmetry_Int_Tables_number   1
_chemical_formula_structural   Y2SbN
_chemical_formula_sum   'Y2 Sb1 N1'
_cell_volume   87.09783303
_cell_formula_units_Z   1
loop_
 _symmetry_equiv_pos_site_id
 _symmetry_equiv_pos_as_xyz
  1  'x, y, z'
loop_
 _atom_site_type_symbol
 _atom_site_label
 _atom_site_symmetry_multiplicity
 _atom_site_fract_x
 _atom_site_fract_y
 _atom_site_fract_z
 _atom_site_occupancy
  Y  Y0  1  0.50000094  0.50000098  0.50000094  1.0
  Y  Y1  1  0.00000028  0.00000028  0.00000027  1.0
  Sb  Sb2  1  0.75000077  0.75000076  0.75000075  1.0
  N  N3  1  0.25000000  0.24999999  0.25000004  1.0
