# generated using pymatgen
data_YAgBr4
_symmetry_space_group_name_H-M   'P 1'
_cell_length_a   6.98140876
_cell_length_b   7.15114657
_cell_length_c   6.98107294
_cell_angle_alpha   89.41396838
_cell_angle_beta   89.99969692
_cell_angle_gamma   89.99997862
_symmetry_Int_Tables_number   1
_chemical_formula_structural   YAgBr4
_chemical_formula_sum   'Y2 Ag2 Br8'
_cell_volume   348.51237549
_cell_formula_units_Z   2
loop_
 _symmetry_equiv_pos_site_id
 _symmetry_equiv_pos_as_xyz
  1  'x, y, z'
loop_
 _atom_site_type_symbol
 _atom_site_label
 _atom_site_symmetry_multiplicity
 _atom_site_fract_x
 _atom_site_fract_y
 _atom_site_fract_z
 _atom_site_occupancy
  Y  Y0  1  0.74904083  0.49999999  0.24999975  1.0
  Y  Y1  1  0.25095917  0.50000001  0.75000025  1.0
  Ag  Ag2  1  0.75611871  0.99999962  0.75000037  1.0
  Ag  Ag3  1  0.24388129  0.00000038  0.24999963  1.0
  Br  Br4  1  0.44146730  0.27781055  0.06121017  1.0
  Br  Br5  1  0.44146727  0.72218900  0.43879026  1.0
  Br  Br6  1  0.94204506  0.27703230  0.94470800  1.0
  Br  Br7  1  0.94204477  0.72296816  0.55529185  1.0
  Br  Br8  1  0.05795494  0.72296769  0.05529200  1.0
  Br  Br9  1  0.05795523  0.27703185  0.44470815  1.0
  Br  Br10  1  0.55853273  0.27781100  0.56120974  1.0
  Br  Br11  1  0.55853270  0.72218945  0.93878983  1.0
