# generated using pymatgen
data_YAgI4
_symmetry_space_group_name_H-M   'P 1'
_cell_length_a   4.35914190
_cell_length_b   10.42604203
_cell_length_c   11.33066739
_cell_angle_alpha   91.15741415
_cell_angle_beta   90.00000070
_cell_angle_gamma   89.99999918
_symmetry_Int_Tables_number   1
_chemical_formula_structural   YAgI4
_chemical_formula_sum   'Y2 Ag2 I8'
_cell_volume   514.85786583
_cell_formula_units_Z   2
loop_
 _symmetry_equiv_pos_site_id
 _symmetry_equiv_pos_as_xyz
  1  'x, y, z'
loop_
 _atom_site_type_symbol
 _atom_site_label
 _atom_site_symmetry_multiplicity
 _atom_site_fract_x
 _atom_site_fract_y
 _atom_site_fract_z
 _atom_site_occupancy
  Y  Y0  1  0.00000000  0.50000000  0.50000000  1.0
  Y  Y1  1  0.00000000  0.00000000  0.00000000  1.0
  Ag  Ag2  1  0.51737690  0.25000000  0.75000011  1.0
  Ag  Ag3  1  0.48262310  0.75000000  0.24999989  1.0
  I  I4  1  0.50084263  0.70269431  0.54376017  1.0
  I  I5  1  0.50084263  0.79730568  0.95623982  1.0
  I  I6  1  0.98570887  0.94685570  0.26168747  1.0
  I  I7  1  0.98570886  0.55314430  0.23831253  1.0
  I  I8  1  0.01429112  0.05314430  0.73831253  1.0
  I  I9  1  0.01429114  0.44685570  0.76168747  1.0
  I  I10  1  0.49915736  0.20269432  0.04376018  1.0
  I  I11  1  0.49915737  0.29730569  0.45623983  1.0
