# generated using pymatgen
data_YAuO2
_symmetry_space_group_name_H-M   'P 1'
_cell_length_a   3.43580174
_cell_length_b   6.10699281
_cell_length_c   6.19102191
_cell_angle_alpha   83.68537411
_cell_angle_beta   89.99884886
_cell_angle_gamma   90.00061831
_symmetry_Int_Tables_number   1
_chemical_formula_structural   YAuO2
_chemical_formula_sum   'Y2 Au2 O4'
_cell_volume   129.11446977
_cell_formula_units_Z   2
loop_
 _symmetry_equiv_pos_site_id
 _symmetry_equiv_pos_as_xyz
  1  'x, y, z'
loop_
 _atom_site_type_symbol
 _atom_site_label
 _atom_site_symmetry_multiplicity
 _atom_site_fract_x
 _atom_site_fract_y
 _atom_site_fract_z
 _atom_site_occupancy
  Y  Y0  1  0.00000447  0.99999989  0.00000002  1.0
  Y  Y1  1  0.50000671  0.00000009  0.50000000  1.0
  Au  Au2  1  0.50000257  0.51212694  0.75541412  1.0
  Au  Au3  1  0.49993757  0.48787304  0.24458581  1.0
  O  O4  1  0.00003045  0.17869105  0.31061537  1.0
  O  O5  1  0.50000694  0.16785944  0.81118810  1.0
  O  O6  1  0.50000813  0.83214053  0.18881205  1.0
  O  O7  1  0.00000316  0.82130901  0.68938453  1.0
