# generated using pymatgen
data_YbAgP
_symmetry_space_group_name_H-M   'P 1'
_cell_length_a   4.66021422
_cell_length_b   4.66021439
_cell_length_c   4.66021429
_cell_angle_alpha   59.99998633
_cell_angle_beta   59.99998404
_cell_angle_gamma   59.99998008
_symmetry_Int_Tables_number   1
_chemical_formula_structural   YbAgP
_chemical_formula_sum   'Yb1 Ag1 P1'
_cell_volume   71.56530131
_cell_formula_units_Z   1
loop_
 _symmetry_equiv_pos_site_id
 _symmetry_equiv_pos_as_xyz
  1  'x, y, z'
loop_
 _atom_site_type_symbol
 _atom_site_label
 _atom_site_symmetry_multiplicity
 _atom_site_fract_x
 _atom_site_fract_y
 _atom_site_fract_z
 _atom_site_occupancy
  Yb  Yb0  1  0.74999999  0.75000000  0.75000000  1.0
  Ag  Ag1  1  0.50000000  0.50000001  0.50000000  1.0
  P  P2  1  0.00000001  0.99999999  0.00000001  1.0
