# generated using pymatgen
data_YbBrCl2
_symmetry_space_group_name_H-M   'P 1'
_cell_length_a   5.10375941
_cell_length_b   5.40444405
_cell_length_c   10.73291551
_cell_angle_alpha   106.37736089
_cell_angle_beta   90.00225528
_cell_angle_gamma   89.99707584
_symmetry_Int_Tables_number   1
_chemical_formula_structural   YbBrCl2
_chemical_formula_sum   'Yb2 Br2 Cl4'
_cell_volume   284.03389400
_cell_formula_units_Z   2
loop_
 _symmetry_equiv_pos_site_id
 _symmetry_equiv_pos_as_xyz
  1  'x, y, z'
loop_
 _atom_site_type_symbol
 _atom_site_label
 _atom_site_symmetry_multiplicity
 _atom_site_fract_x
 _atom_site_fract_y
 _atom_site_fract_z
 _atom_site_occupancy
  Yb  Yb0  1  0.49998892  0.65989230  0.34059555  1.0
  Yb  Yb1  1  0.50001112  0.34012682  0.65939961  1.0
  Br  Br2  1  0.99997821  0.61231501  0.23473446  1.0
  Br  Br3  1  0.00002179  0.38766827  0.76527507  1.0
  Cl  Cl4  1  0.49998383  0.04210179  0.09776814  1.0
  Cl  Cl5  1  0.50001613  0.95787370  0.90223106  1.0
  Cl  Cl6  1  0.50000792  0.80797586  0.60399661  1.0
  Cl  Cl7  1  0.49999208  0.19204625  0.39599949  1.0
