# generated using pymatgen
data_YbCdI4
_symmetry_space_group_name_H-M   'P 1'
_cell_length_a   8.72980218
_cell_length_b   7.05221776
_cell_length_c   7.69435165
_cell_angle_alpha   89.71154169
_cell_angle_beta   89.99930332
_cell_angle_gamma   90.00052149
_symmetry_Int_Tables_number   1
_chemical_formula_structural   YbCdI4
_chemical_formula_sum   'Yb2 Cd2 I8'
_cell_volume   473.69264697
_cell_formula_units_Z   2
loop_
 _symmetry_equiv_pos_site_id
 _symmetry_equiv_pos_as_xyz
  1  'x, y, z'
loop_
 _atom_site_type_symbol
 _atom_site_label
 _atom_site_symmetry_multiplicity
 _atom_site_fract_x
 _atom_site_fract_y
 _atom_site_fract_z
 _atom_site_occupancy
  Yb  Yb0  1  0.64080498  0.49999979  0.24999937  1.0
  Yb  Yb1  1  0.35919505  0.50000022  0.75000064  1.0
  Cd  Cd2  1  0.13670313  0.00000072  0.24999934  1.0
  Cd  Cd3  1  0.86329686  0.99999927  0.75000064  1.0
  I  I4  1  0.10990721  0.76002980  0.93120846  1.0
  I  I5  1  0.10990833  0.23997130  0.56879417  1.0
  I  I6  1  0.89009278  0.23997018  0.06879155  1.0
  I  I7  1  0.89009167  0.76002870  0.43120581  1.0
  I  I8  1  0.38523198  0.75035980  0.41776143  1.0
  I  I9  1  0.38523200  0.24964132  0.08223993  1.0
  I  I10  1  0.61476801  0.24964022  0.58223860  1.0
  I  I11  1  0.61476799  0.75035866  0.91776006  1.0
