# generated using pymatgen
data_YbEuF4
_symmetry_space_group_name_H-M   'P 1'
_cell_length_a   5.68194873
_cell_length_b   5.56783113
_cell_length_c   5.57251829
_cell_angle_alpha   89.99138408
_cell_angle_beta   90.00053541
_cell_angle_gamma   90.26778529
_symmetry_Int_Tables_number   1
_chemical_formula_structural   YbEuF4
_chemical_formula_sum   'Yb2 Eu2 F8'
_cell_volume   176.29099127
_cell_formula_units_Z   2
loop_
 _symmetry_equiv_pos_site_id
 _symmetry_equiv_pos_as_xyz
  1  'x, y, z'
loop_
 _atom_site_type_symbol
 _atom_site_label
 _atom_site_symmetry_multiplicity
 _atom_site_fract_x
 _atom_site_fract_y
 _atom_site_fract_z
 _atom_site_occupancy
  Yb  Yb0  1  0.50000954  0.24999988  0.74980811  1.0
  Yb  Yb1  1  0.49998904  0.75000484  0.25019191  1.0
  Eu  Eu2  1  0.00000140  0.75000724  0.75026334  1.0
  Eu  Eu3  1  0.99999897  0.24999615  0.24973441  1.0
  F  F4  1  0.73039157  0.99900374  0.50311241  1.0
  F  F5  1  0.26956171  0.50098635  0.50309740  1.0
  F  F6  1  0.26961336  0.00099584  0.49689319  1.0
  F  F7  1  0.73044604  0.49901848  0.49690633  1.0
  F  F8  1  0.26977868  0.50149547  0.00273117  1.0
  F  F9  1  0.73027019  0.99851579  0.00274160  1.0
  F  F10  1  0.73021676  0.49850361  0.99726644  1.0
  F  F11  1  0.26972575  0.00147362  0.99725568  1.0
