# generated using pymatgen
data_YbMnF4
_symmetry_space_group_name_H-M   'P 1'
_cell_length_a   5.90860285
_cell_length_b   5.10552234
_cell_length_c   5.49813904
_cell_angle_alpha   92.02216116
_cell_angle_beta   89.99999111
_cell_angle_gamma   90.00000399
_symmetry_Int_Tables_number   1
_chemical_formula_structural   YbMnF4
_chemical_formula_sum   'Yb2 Mn2 F8'
_cell_volume   165.75634403
_cell_formula_units_Z   2
loop_
 _symmetry_equiv_pos_site_id
 _symmetry_equiv_pos_as_xyz
  1  'x, y, z'
loop_
 _atom_site_type_symbol
 _atom_site_label
 _atom_site_symmetry_multiplicity
 _atom_site_fract_x
 _atom_site_fract_y
 _atom_site_fract_z
 _atom_site_occupancy
  Yb  Yb0  1  0.81078631  0.99999999  0.75000000  1.0
  Yb  Yb1  1  0.18921368  0.00000002  0.25000001  1.0
  Mn  Mn2  1  0.32411766  0.50000001  0.75000007  1.0
  Mn  Mn3  1  0.67588234  0.49999999  0.24999990  1.0
  F  F4  1  0.09623885  0.23111995  0.58659840  1.0
  F  F5  1  0.90376129  0.23112003  0.08659843  1.0
  F  F6  1  0.58764239  0.27042612  0.55710977  1.0
  F  F7  1  0.41235778  0.27042605  0.05710973  1.0
  F  F8  1  0.58764225  0.72957395  0.94289028  1.0
  F  F9  1  0.41235761  0.72957386  0.44289023  1.0
  F  F10  1  0.09623871  0.76887996  0.91340158  1.0
  F  F11  1  0.90376114  0.76888007  0.41340160  1.0
