# generated using pymatgen
data_YbP2Os
_symmetry_space_group_name_H-M   'P 1'
_cell_length_a   4.42602171
_cell_length_b   4.42601964
_cell_length_c   4.42601945
_cell_angle_alpha   60.00001112
_cell_angle_beta   60.00002922
_cell_angle_gamma   60.00003001
_symmetry_Int_Tables_number   1
_chemical_formula_structural   YbP2Os
_chemical_formula_sum   'Yb1 P2 Os1'
_cell_volume   61.30916873
_cell_formula_units_Z   1
loop_
 _symmetry_equiv_pos_site_id
 _symmetry_equiv_pos_as_xyz
  1  'x, y, z'
loop_
 _atom_site_type_symbol
 _atom_site_label
 _atom_site_symmetry_multiplicity
 _atom_site_fract_x
 _atom_site_fract_y
 _atom_site_fract_z
 _atom_site_occupancy
  Yb  Yb0  1  0.25000010  0.25000010  0.25000010  1.0
  P  P1  1  0.50000093  0.50000082  0.50000084  1.0
  P  P2  1  0.00000000  0.00000010  0.00000008  1.0
  Os  Os3  1  0.75000098  0.75000098  0.75000097  1.0
