# generated using pymatgen
data_YBr2Cl
_symmetry_space_group_name_H-M   'P 1'
_cell_length_a   3.83397337
_cell_length_b   7.73176018
_cell_length_c   10.10091589
_cell_angle_alpha   96.04978077
_cell_angle_beta   90.01481012
_cell_angle_gamma   89.99208927
_symmetry_Int_Tables_number   1
_chemical_formula_structural   YBr2Cl
_chemical_formula_sum   'Y2 Br4 Cl2'
_cell_volume   297.75751308
_cell_formula_units_Z   2
loop_
 _symmetry_equiv_pos_site_id
 _symmetry_equiv_pos_as_xyz
  1  'x, y, z'
loop_
 _atom_site_type_symbol
 _atom_site_label
 _atom_site_symmetry_multiplicity
 _atom_site_fract_x
 _atom_site_fract_y
 _atom_site_fract_z
 _atom_site_occupancy
  Y  Y0  1  0.00000001  0.00000010  0.99999984  1.0
  Y  Y1  1  0.50000000  0.99999995  0.49999994  1.0
  Br  Br2  1  0.99992786  0.24242647  0.44451626  1.0
  Br  Br3  1  0.50009747  0.14784436  0.76866787  1.0
  Br  Br4  1  0.49990248  0.85215559  0.23133221  1.0
  Br  Br5  1  0.00007213  0.75757354  0.55548382  1.0
  Cl  Cl6  1  0.50001335  0.77420305  0.90938449  1.0
  Cl  Cl7  1  0.49998670  0.22579694  0.09061557  1.0
