# generated using pymatgen
data_YbTiSe2
_symmetry_space_group_name_H-M   'P 1'
_cell_length_a   3.83442815
_cell_length_b   3.83439930
_cell_length_c   6.77383618
_cell_angle_alpha   89.99952613
_cell_angle_beta   90.00002512
_cell_angle_gamma   120.00026038
_symmetry_Int_Tables_number   1
_chemical_formula_structural   YbTiSe2
_chemical_formula_sum   'Yb1 Ti1 Se2'
_cell_volume   86.25059953
_cell_formula_units_Z   1
loop_
 _symmetry_equiv_pos_site_id
 _symmetry_equiv_pos_as_xyz
  1  'x, y, z'
loop_
 _atom_site_type_symbol
 _atom_site_label
 _atom_site_symmetry_multiplicity
 _atom_site_fract_x
 _atom_site_fract_y
 _atom_site_fract_z
 _atom_site_occupancy
  Yb  Yb0  1  0.99999996  0.99999994  0.50000000  1.0
  Ti  Ti1  1  0.00000001  0.99999999  0.00000000  1.0
  Se  Se2  1  0.33333333  0.66666667  0.77534262  1.0
  Se  Se3  1  0.66666667  0.33333333  0.22465738  1.0
