# generated using pymatgen
data_YFeAs2
_symmetry_space_group_name_H-M   'P 1'
_cell_length_a   4.72106495
_cell_length_b   4.72084303
_cell_length_c   4.72099133
_cell_angle_alpha   60.00136015
_cell_angle_beta   59.99669825
_cell_angle_gamma   59.99989486
_symmetry_Int_Tables_number   1
_chemical_formula_structural   YFeAs2
_chemical_formula_sum   'Y1 Fe1 As2'
_cell_volume   74.39967204
_cell_formula_units_Z   1
loop_
 _symmetry_equiv_pos_site_id
 _symmetry_equiv_pos_as_xyz
  1  'x, y, z'
loop_
 _atom_site_type_symbol
 _atom_site_label
 _atom_site_symmetry_multiplicity
 _atom_site_fract_x
 _atom_site_fract_y
 _atom_site_fract_z
 _atom_site_occupancy
  Y  Y0  1  0.50000000  0.50000000  0.50000000  1.0
  Fe  Fe1  1  0.00000000  0.00000000  0.99999999  1.0
  As  As2  1  0.25000076  0.25000061  0.25000084  1.0
  As  As3  1  0.74999923  0.74999939  0.74999916  1.0
