# generated using pymatgen
data_YHgF4
_symmetry_space_group_name_H-M   'P 1'
_cell_length_a   6.17722722
_cell_length_b   5.77328094
_cell_length_c   6.56096370
_cell_angle_alpha   89.99950534
_cell_angle_beta   89.99940144
_cell_angle_gamma   93.20722423
_symmetry_Int_Tables_number   1
_chemical_formula_structural   YHgF4
_chemical_formula_sum   'Y2 Hg2 F8'
_cell_volume   233.61630044
_cell_formula_units_Z   2
loop_
 _symmetry_equiv_pos_site_id
 _symmetry_equiv_pos_as_xyz
  1  'x, y, z'
loop_
 _atom_site_type_symbol
 _atom_site_label
 _atom_site_symmetry_multiplicity
 _atom_site_fract_x
 _atom_site_fract_y
 _atom_site_fract_z
 _atom_site_occupancy
  Y  Y0  1  0.49999903  0.74999933  0.65598166  1.0
  Y  Y1  1  0.50000076  0.25000097  0.34441609  1.0
  Hg  Hg2  1  0.99999698  0.75000809  0.08452468  1.0
  Hg  Hg3  1  0.00000305  0.24999184  0.91682126  1.0
  F  F4  1  0.28758344  0.57047141  0.86497460  1.0
  F  F5  1  0.71240921  0.92952526  0.86497015  1.0
  F  F6  1  0.71167678  0.42800330  0.13409038  1.0
  F  F7  1  0.28833043  0.07199997  0.13409482  1.0
  F  F8  1  0.31454502  0.55560610  0.40659398  1.0
  F  F9  1  0.68545431  0.94439387  0.40659215  1.0
  F  F10  1  0.68578530  0.44455675  0.59346914  1.0
  F  F11  1  0.31421569  0.05544311  0.59347108  1.0
