# generated using pymatgen
data_YI2Cl
_symmetry_space_group_name_H-M   'P 1'
_cell_length_a   3.98716427
_cell_length_b   8.61491140
_cell_length_c   10.76037611
_cell_angle_alpha   97.69517062
_cell_angle_beta   90.18490794
_cell_angle_gamma   89.93105515
_symmetry_Int_Tables_number   1
_chemical_formula_structural   YI2Cl
_chemical_formula_sum   'Y2 I4 Cl2'
_cell_volume   366.27834422
_cell_formula_units_Z   2
loop_
 _symmetry_equiv_pos_site_id
 _symmetry_equiv_pos_as_xyz
  1  'x, y, z'
loop_
 _atom_site_type_symbol
 _atom_site_label
 _atom_site_symmetry_multiplicity
 _atom_site_fract_x
 _atom_site_fract_y
 _atom_site_fract_z
 _atom_site_occupancy
  Y  Y0  1  0.99999427  0.00004269  0.99993893  1.0
  Y  Y1  1  0.50000158  0.99998065  0.49997477  1.0
  I  I2  1  0.99939491  0.24083681  0.44146807  1.0
  I  I3  1  0.50105922  0.15714038  0.77278754  1.0
  I  I4  1  0.49895196  0.84284356  0.22724898  1.0
  I  I5  1  0.00060883  0.75917082  0.55856479  1.0
  Cl  Cl6  1  0.49987438  0.80475895  0.90735882  1.0
  Cl  Cl7  1  0.50011485  0.19522615  0.09265810  1.0
