# generated using pymatgen
data_YMnSb2
_symmetry_space_group_name_H-M   'P 1'
_cell_length_a   4.94155528
_cell_length_b   4.94155523
_cell_length_c   4.94155374
_cell_angle_alpha   59.99991725
_cell_angle_beta   59.99987699
_cell_angle_gamma   59.99988723
_symmetry_Int_Tables_number   1
_chemical_formula_structural   YMnSb2
_chemical_formula_sum   'Y1 Mn1 Sb2'
_cell_volume   85.32470417
_cell_formula_units_Z   1
loop_
 _symmetry_equiv_pos_site_id
 _symmetry_equiv_pos_as_xyz
  1  'x, y, z'
loop_
 _atom_site_type_symbol
 _atom_site_label
 _atom_site_symmetry_multiplicity
 _atom_site_fract_x
 _atom_site_fract_y
 _atom_site_fract_z
 _atom_site_occupancy
  Y  Y0  1  0.00000000  0.00000000  0.00000000  1.0
  Mn  Mn1  1  0.50000000  0.50000000  0.50000000  1.0
  Sb  Sb2  1  0.75000000  0.75000016  0.74999997  1.0
  Sb  Sb3  1  0.25000000  0.24999984  0.25000003  1.0
