# generated using pymatgen
data_YSF
_symmetry_space_group_name_H-M   'P 1'
_cell_length_a   4.35833777
_cell_length_b   4.35833856
_cell_length_c   4.35833787
_cell_angle_alpha   59.99992371
_cell_angle_beta   59.99991432
_cell_angle_gamma   59.99992530
_symmetry_Int_Tables_number   1
_chemical_formula_structural   YSF
_chemical_formula_sum   'Y1 S1 F1'
_cell_volume   58.53922504
_cell_formula_units_Z   1
loop_
 _symmetry_equiv_pos_site_id
 _symmetry_equiv_pos_as_xyz
  1  'x, y, z'
loop_
 _atom_site_type_symbol
 _atom_site_label
 _atom_site_symmetry_multiplicity
 _atom_site_fract_x
 _atom_site_fract_y
 _atom_site_fract_z
 _atom_site_occupancy
  Y  Y0  1  0.00000018  0.00000004  0.00000017  1.0
  S  S1  1  0.24999986  0.24999997  0.24999987  1.0
  F  F2  1  0.74999996  0.74999999  0.74999997  1.0
