# generated using pymatgen
data_YTaO4
_symmetry_space_group_name_H-M   'P 1'
_cell_length_a   5.52585134
_cell_length_b   5.14697308
_cell_length_c   5.33484287
_cell_angle_alpha   83.52959078
_cell_angle_beta   89.99923868
_cell_angle_gamma   90.00160971
_symmetry_Int_Tables_number   1
_chemical_formula_structural   YTaO4
_chemical_formula_sum   'Y2 Ta2 O8'
_cell_volume   150.76394865
_cell_formula_units_Z   2
loop_
 _symmetry_equiv_pos_site_id
 _symmetry_equiv_pos_as_xyz
  1  'x, y, z'
loop_
 _atom_site_type_symbol
 _atom_site_label
 _atom_site_symmetry_multiplicity
 _atom_site_fract_x
 _atom_site_fract_y
 _atom_site_fract_z
 _atom_site_occupancy
  Y  Y0  1  0.73200498  0.49999930  0.24999537  1.0
  Y  Y1  1  0.26799501  0.50000065  0.75000464  1.0
  Ta  Ta2  1  0.80703875  0.99999264  0.75000922  1.0
  Ta  Ta3  1  0.19296096  0.00000749  0.24999074  1.0
  O  O4  1  0.41338603  0.25012561  0.09935633  1.0
  O  O5  1  0.41339528  0.74986643  0.40065071  1.0
  O  O6  1  0.93387005  0.23058489  0.99723798  1.0
  O  O7  1  0.93387199  0.76941406  0.50276032  1.0
  O  O8  1  0.06612985  0.76941506  0.00276181  1.0
  O  O9  1  0.06612790  0.23058597  0.49723985  1.0
  O  O10  1  0.58660500  0.25013327  0.59934950  1.0
  O  O11  1  0.58661420  0.74987463  0.90064352  1.0
