# generated using pymatgen
data_ZnCdO2
_symmetry_space_group_name_H-M   'P 1'
_cell_length_a   3.17141775
_cell_length_b   3.59755587
_cell_length_c   9.97760116
_cell_angle_alpha   89.78696349
_cell_angle_beta   58.24933249
_cell_angle_gamma   89.61483141
_symmetry_Int_Tables_number   1
_chemical_formula_structural   ZnCdO2
_chemical_formula_sum   'Zn2 Cd2 O4'
_cell_volume   96.79948299
_cell_formula_units_Z   2
loop_
 _symmetry_equiv_pos_site_id
 _symmetry_equiv_pos_as_xyz
  1  'x, y, z'
loop_
 _atom_site_type_symbol
 _atom_site_label
 _atom_site_symmetry_multiplicity
 _atom_site_fract_x
 _atom_site_fract_y
 _atom_site_fract_z
 _atom_site_occupancy
  Zn  Zn0  1  0.11170069  0.75066487  0.61685057  1.0
  Zn  Zn1  1  0.05698877  0.25150432  0.39091501  1.0
  Cd  Cd2  1  0.05531034  0.25027634  0.86897852  1.0
  Cd  Cd3  1  0.99772403  0.75082146  0.14016665  1.0
  O  O4  1  0.42992044  0.24813697  0.60241134  1.0
  O  O5  1  0.32563880  0.74976717  0.38935232  1.0
  O  O6  1  0.56149253  0.74901147  0.85269824  1.0
  O  O7  1  0.46122440  0.24981740  0.13862735  1.0
