# generated using pymatgen
data_ZnGeCl4
_symmetry_space_group_name_H-M   'P 1'
_cell_length_a   10.03150056
_cell_length_b   5.93008880
_cell_length_c   5.92308922
_cell_angle_alpha   78.61832856
_cell_angle_beta   89.99969605
_cell_angle_gamma   90.00055007
_symmetry_Int_Tables_number   1
_chemical_formula_structural   ZnGeCl4
_chemical_formula_sum   'Zn2 Ge2 Cl8'
_cell_volume   345.42168217
_cell_formula_units_Z   2
loop_
 _symmetry_equiv_pos_site_id
 _symmetry_equiv_pos_as_xyz
  1  'x, y, z'
loop_
 _atom_site_type_symbol
 _atom_site_label
 _atom_site_symmetry_multiplicity
 _atom_site_fract_x
 _atom_site_fract_y
 _atom_site_fract_z
 _atom_site_occupancy
  Zn  Zn0  1  0.77351339  0.49999933  0.75000069  1.0
  Zn  Zn1  1  0.22648678  0.50000024  0.24999978  1.0
  Ge  Ge2  1  0.82605105  0.99999995  0.25000206  1.0
  Ge  Ge3  1  0.17394897  0.00000036  0.74999775  1.0
  Cl  Cl4  1  0.65320524  0.75552910  0.47023832  1.0
  Cl  Cl5  1  0.65320732  0.24447418  0.02975803  1.0
  Cl  Cl6  1  0.34679449  0.24447095  0.52976150  1.0
  Cl  Cl7  1  0.34679276  0.75552602  0.97024180  1.0
  Cl  Cl8  1  0.88650005  0.26986181  0.55061661  1.0
  Cl  Cl9  1  0.88649999  0.73013815  0.94938229  1.0
  Cl  Cl10  1  0.11349999  0.73013821  0.44938351  1.0
  Cl  Cl11  1  0.11350000  0.26986171  0.05061766  1.0
