# generated using pymatgen
data_ZnGeO2
_symmetry_space_group_name_H-M   'P 1'
_cell_length_a   2.78091871
_cell_length_b   5.38728343
_cell_length_c   7.95989604
_cell_angle_alpha   88.58999590
_cell_angle_beta   89.91458846
_cell_angle_gamma   89.97647551
_symmetry_Int_Tables_number   1
_chemical_formula_structural   ZnGeO2
_chemical_formula_sum   'Zn2 Ge2 O4'
_cell_volume   119.21570764
_cell_formula_units_Z   2
loop_
 _symmetry_equiv_pos_site_id
 _symmetry_equiv_pos_as_xyz
  1  'x, y, z'
loop_
 _atom_site_type_symbol
 _atom_site_label
 _atom_site_symmetry_multiplicity
 _atom_site_fract_x
 _atom_site_fract_y
 _atom_site_fract_z
 _atom_site_occupancy
  Zn  Zn0  1  0.99983062  0.15967483  0.86864071  1.0
  Zn  Zn1  1  0.00017170  0.84032573  0.13136002  1.0
  Ge  Ge2  1  0.99947163  0.66336670  0.70060975  1.0
  Ge  Ge3  1  0.00050959  0.33663397  0.29939075  1.0
  O  O4  1  0.49988725  0.40714378  0.77912932  1.0
  O  O5  1  0.50010588  0.59285520  0.22086992  1.0
  O  O6  1  0.50038562  0.87476260  0.85404903  1.0
  O  O7  1  0.49963771  0.12523718  0.14595050  1.0
