# generated using pymatgen
data_ZnIrS4
_symmetry_space_group_name_H-M   'P 1'
_cell_length_a   5.86131778
_cell_length_b   5.96373104
_cell_length_c   5.78655931
_cell_angle_alpha   88.15763539
_cell_angle_beta   90.00003632
_cell_angle_gamma   89.99990778
_symmetry_Int_Tables_number   1
_chemical_formula_structural   ZnIrS4
_chemical_formula_sum   'Zn2 Ir2 S8'
_cell_volume   202.16648687
_cell_formula_units_Z   2
loop_
 _symmetry_equiv_pos_site_id
 _symmetry_equiv_pos_as_xyz
  1  'x, y, z'
loop_
 _atom_site_type_symbol
 _atom_site_label
 _atom_site_symmetry_multiplicity
 _atom_site_fract_x
 _atom_site_fract_y
 _atom_site_fract_z
 _atom_site_occupancy
  Zn  Zn0  1  0.50000000  0.50000001  0.00000000  1.0
  Zn  Zn1  1  0.99999999  0.00000000  0.00000000  1.0
  Ir  Ir2  1  0.50000000  0.99999999  0.50000000  1.0
  Ir  Ir3  1  0.00000000  0.49999999  0.50000000  1.0
  S  S4  1  0.89951400  0.59794576  0.88234588  1.0
  S  S5  1  0.39951407  0.90205433  0.11765496  1.0
  S  S6  1  0.13477182  0.13957052  0.61511565  1.0
  S  S7  1  0.63477036  0.36042846  0.38488426  1.0
  S  S8  1  0.10048600  0.40205424  0.11765412  1.0
  S  S9  1  0.60048593  0.09794567  0.88234503  1.0
  S  S10  1  0.86522818  0.86042949  0.38488436  1.0
  S  S11  1  0.36522964  0.63957154  0.61511574  1.0
