# generated using pymatgen
data_ZnPbS2
_symmetry_space_group_name_H-M   'P 1'
_cell_length_a   4.88290565
_cell_length_b   4.88290613
_cell_length_c   4.88290703
_cell_angle_alpha   59.99981739
_cell_angle_beta   59.99980838
_cell_angle_gamma   59.99983835
_symmetry_Int_Tables_number   1
_chemical_formula_structural   ZnPbS2
_chemical_formula_sum   'Zn1 Pb1 S2'
_cell_volume   82.32247272
_cell_formula_units_Z   1
loop_
 _symmetry_equiv_pos_site_id
 _symmetry_equiv_pos_as_xyz
  1  'x, y, z'
loop_
 _atom_site_type_symbol
 _atom_site_label
 _atom_site_symmetry_multiplicity
 _atom_site_fract_x
 _atom_site_fract_y
 _atom_site_fract_z
 _atom_site_occupancy
  Zn  Zn0  1  0.00000000  0.99999996  0.99999998  1.0
  Pb  Pb1  1  0.50000000  0.50000003  0.50000007  1.0
  S  S2  1  0.74999992  0.74999994  0.74999985  1.0
  S  S3  1  0.25000008  0.25000006  0.25000010  1.0
