# generated using pymatgen
data_ZnPbS2
_symmetry_space_group_name_H-M   'P 1'
_cell_length_a   4.55978997
_cell_length_b   7.87941219
_cell_length_c   7.61381837
_cell_angle_alpha   70.14982507
_cell_angle_beta   90.00004485
_cell_angle_gamma   90.00000879
_symmetry_Int_Tables_number   1
_chemical_formula_structural   ZnPbS2
_chemical_formula_sum   'Zn2 Pb2 S4'
_cell_volume   257.29932784
_cell_formula_units_Z   2
loop_
 _symmetry_equiv_pos_site_id
 _symmetry_equiv_pos_as_xyz
  1  'x, y, z'
loop_
 _atom_site_type_symbol
 _atom_site_label
 _atom_site_symmetry_multiplicity
 _atom_site_fract_x
 _atom_site_fract_y
 _atom_site_fract_z
 _atom_site_occupancy
  Zn  Zn0  1  0.50000009  0.99999999  0.50000001  1.0
  Zn  Zn1  1  0.99999997  0.49999998  0.50000000  1.0
  Pb  Pb2  1  0.49999988  0.50000004  0.99999998  1.0
  Pb  Pb3  1  0.00000003  0.00000004  0.99999998  1.0
  S  S4  1  0.00000027  0.60076410  0.20223863  1.0
  S  S5  1  0.99999961  0.39923588  0.79776137  1.0
  S  S6  1  0.50000034  0.09926576  0.20228753  1.0
  S  S7  1  0.49999981  0.90073421  0.79771250  1.0
