# generated using pymatgen
data_AgAsO3
_symmetry_space_group_name_H-M   'P 1'
_cell_length_a   3.82948856
_cell_length_b   3.82946471
_cell_length_c   3.82946319
_cell_angle_alpha   89.99999880
_cell_angle_beta   89.99999491
_cell_angle_gamma   89.99999791
_symmetry_Int_Tables_number   1
_chemical_formula_structural   AgAsO3
_chemical_formula_sum   'Ag1 As1 O3'
_cell_volume   56.15866141
_cell_formula_units_Z   1
loop_
 _symmetry_equiv_pos_site_id
 _symmetry_equiv_pos_as_xyz
  1  'x, y, z'
loop_
 _atom_site_type_symbol
 _atom_site_label
 _atom_site_symmetry_multiplicity
 _atom_site_fract_x
 _atom_site_fract_y
 _atom_site_fract_z
 _atom_site_occupancy
  Ag  Ag0  1  0.50000000  0.50000000  0.50000000  1.0
  As  As1  1  0.00000000  0.00000000  0.00000000  1.0
  O  O2  1  0.50000000  0.00000000  0.00000000  1.0
  O  O3  1  0.00000000  0.50000000  0.00000000  1.0
  O  O4  1  0.00000000  0.00000000  0.50000000  1.0
