# generated using pymatgen
data_Al2CoO4
_symmetry_space_group_name_H-M   'P 1'
_cell_length_a   5.82237682
_cell_length_b   5.82237306
_cell_length_c   5.82239322
_cell_angle_alpha   59.99986048
_cell_angle_beta   59.99988135
_cell_angle_gamma   59.99985091
_symmetry_Int_Tables_number   1
_chemical_formula_structural   Al2CoO4
_chemical_formula_sum   'Al4 Co2 O8'
_cell_volume   139.56789744
_cell_formula_units_Z   2
loop_
 _symmetry_equiv_pos_site_id
 _symmetry_equiv_pos_as_xyz
  1  'x, y, z'
loop_
 _atom_site_type_symbol
 _atom_site_label
 _atom_site_symmetry_multiplicity
 _atom_site_fract_x
 _atom_site_fract_y
 _atom_site_fract_z
 _atom_site_occupancy
  Al  Al0  1  0.49999951  0.49999966  0.99999999  1.0
  Al  Al1  1  0.50000040  0.50000050  0.49999910  1.0
  Al  Al2  1  0.00000000  0.49999996  0.50000047  1.0
  Al  Al3  1  0.50000010  0.00000001  0.50000038  1.0
  Co  Co4  1  0.12500144  0.12499973  0.12499964  1.0
  Co  Co5  1  0.87499861  0.87500059  0.87500024  1.0
  O  O6  1  0.73561129  0.73561290  0.73561366  1.0
  O  O7  1  0.26438992  0.26438751  0.70683845  1.0
  O  O8  1  0.26438381  0.70684017  0.26438641  1.0
  O  O9  1  0.70683927  0.26438947  0.26438387  1.0
  O  O10  1  0.73561565  0.29315974  0.73561125  1.0
  O  O11  1  0.29316072  0.73561092  0.73561314  1.0
  O  O12  1  0.26438618  0.26438411  0.26439179  1.0
  O  O13  1  0.73561310  0.73561472  0.29316161  1.0
