# generated using pymatgen
data_Al2Si2O7
_symmetry_space_group_name_H-M   'P 1'
_cell_length_a   6.45888098
_cell_length_b   6.45888051
_cell_length_c   6.45888069
_cell_angle_alpha   59.99997691
_cell_angle_beta   59.99997968
_cell_angle_gamma   59.99998193
_symmetry_Int_Tables_number   1
_chemical_formula_structural   Al2Si2O7
_chemical_formula_sum   'Al4 Si4 O14'
_cell_volume   190.52702863
_cell_formula_units_Z   2
loop_
 _symmetry_equiv_pos_site_id
 _symmetry_equiv_pos_as_xyz
  1  'x, y, z'
loop_
 _atom_site_type_symbol
 _atom_site_label
 _atom_site_symmetry_multiplicity
 _atom_site_fract_x
 _atom_site_fract_y
 _atom_site_fract_z
 _atom_site_occupancy
  Al  Al0  1  0.12500001  0.12500001  0.12500000  1.0
  Al  Al1  1  0.62499997  0.12500001  0.12500001  1.0
  Al  Al2  1  0.12500002  0.12499999  0.62499997  1.0
  Al  Al3  1  0.12500002  0.62499997  0.12499999  1.0
  Si  Si4  1  0.62500000  0.62500001  0.62499998  1.0
  Si  Si5  1  0.12499999  0.62499999  0.62500003  1.0
  Si  Si6  1  0.62500000  0.62500001  0.12499996  1.0
  Si  Si7  1  0.62500000  0.12499998  0.62500002  1.0
  O  O8  1  0.70487855  0.70487849  0.29512140  1.0
  O  O9  1  0.95487856  0.95487853  0.54512143  1.0
  O  O10  1  0.29512147  0.70487854  0.29512155  1.0
  O  O11  1  0.29512137  0.70487854  0.70487855  1.0
  O  O12  1  0.70487855  0.29512150  0.29512152  1.0
  O  O13  1  0.70487852  0.29512142  0.70487851  1.0
  O  O14  1  0.95487857  0.54512140  0.95487848  1.0
  O  O15  1  0.54512151  0.95487861  0.54512143  1.0
  O  O16  1  0.00000000  0.99999999  0.00000001  1.0
  O  O17  1  0.25000000  0.24999999  0.24999999  1.0
  O  O18  1  0.29512142  0.29512153  0.70487857  1.0
  O  O19  1  0.54512142  0.95487852  0.95487850  1.0
  O  O20  1  0.95487862  0.54512150  0.54512146  1.0
  O  O21  1  0.54512144  0.54512148  0.95487863  1.0
