# generated using pymatgen
data_AlBN2
_symmetry_space_group_name_H-M   'P 1'
_cell_length_a   2.83720000
_cell_length_b   2.83720000
_cell_length_c   4.24938700
_cell_angle_alpha   90.00000000
_cell_angle_beta   90.00000000
_cell_angle_gamma   90.00000000
_symmetry_Int_Tables_number   1
_chemical_formula_structural   AlBN2
_chemical_formula_sum   'Al1 B1 N2'
_cell_volume   34.20630685
_cell_formula_units_Z   1
loop_
 _symmetry_equiv_pos_site_id
 _symmetry_equiv_pos_as_xyz
  1  'x, y, z'
loop_
 _atom_type_symbol
 _atom_type_oxidation_number
  Al3+  3.0
  B3+  3.0
  N3-  -3.0
loop_
 _atom_site_type_symbol
 _atom_site_label
 _atom_site_symmetry_multiplicity
 _atom_site_fract_x
 _atom_site_fract_y
 _atom_site_fract_z
 _atom_site_occupancy
  Al3+  Al0  1  0.50000000  0.50000000  0.50000000  1.0
  B3+  B1  1  0.00000000  0.00000000  0.00000000  1.0
  N3-  N2  1  0.50000000  0.00000000  0.80161700  1.0
  N3-  N3  1  0.00000000  0.50000000  0.19838300  1.0
