# generated using pymatgen
data_AlBSe3
_symmetry_space_group_name_H-M   'P 1'
_cell_length_a   7.20453739
_cell_length_b   7.20453503
_cell_length_c   7.20453488
_cell_angle_alpha   50.51309505
_cell_angle_beta   50.51312624
_cell_angle_gamma   50.51314311
_symmetry_Int_Tables_number   1
_chemical_formula_structural   AlBSe3
_chemical_formula_sum   'Al2 B2 Se6'
_cell_volume   205.22120703
_cell_formula_units_Z   2
loop_
 _symmetry_equiv_pos_site_id
 _symmetry_equiv_pos_as_xyz
  1  'x, y, z'
loop_
 _atom_site_type_symbol
 _atom_site_label
 _atom_site_symmetry_multiplicity
 _atom_site_fract_x
 _atom_site_fract_y
 _atom_site_fract_z
 _atom_site_occupancy
  Al  Al0  1  0.49999992  0.49999998  0.50000009  1.0
  Al  Al1  1  0.00000004  0.00000003  0.99999995  1.0
  B  B2  1  0.74999963  0.75000060  0.74999977  1.0
  B  B3  1  0.25000030  0.24999951  0.25000018  1.0
  Se  Se4  1  0.43074289  0.74999978  0.06925706  1.0
  Se  Se5  1  0.75000017  0.06925670  0.43074339  1.0
  Se  Se6  1  0.93074288  0.56925715  0.24999997  1.0
  Se  Se7  1  0.56925702  0.24999981  0.93074304  1.0
  Se  Se8  1  0.25000020  0.93074339  0.56925652  1.0
  Se  Se9  1  0.06925693  0.43074303  0.75000003  1.0
