# generated using pymatgen
data_AlBS3
_symmetry_space_group_name_H-M   'P 1'
_cell_length_a   6.77421241
_cell_length_b   6.77421261
_cell_length_c   6.77421257
_cell_angle_alpha   50.42433093
_cell_angle_beta   50.42432816
_cell_angle_gamma   50.42432985
_symmetry_Int_Tables_number   1
_chemical_formula_structural   AlBS3
_chemical_formula_sum   'Al2 B2 S6'
_cell_volume   170.13004646
_cell_formula_units_Z   2
loop_
 _symmetry_equiv_pos_site_id
 _symmetry_equiv_pos_as_xyz
  1  'x, y, z'
loop_
 _atom_site_type_symbol
 _atom_site_label
 _atom_site_symmetry_multiplicity
 _atom_site_fract_x
 _atom_site_fract_y
 _atom_site_fract_z
 _atom_site_occupancy
  Al  Al0  1  0.49999997  0.49999999  0.49999993  1.0
  Al  Al1  1  0.00000003  0.00000000  0.00000004  1.0
  B  B2  1  0.74999999  0.75000002  0.75000001  1.0
  B  B3  1  0.24999996  0.25000005  0.25000000  1.0
  S  S4  1  0.06612635  0.74999997  0.43387366  1.0
  S  S5  1  0.75000008  0.43387358  0.06612639  1.0
  S  S6  1  0.56612636  0.93387364  0.25000003  1.0
  S  S7  1  0.93387361  0.25000001  0.56612639  1.0
  S  S8  1  0.25000001  0.56612639  0.93387357  1.0
  S  S9  1  0.43387363  0.06612636  0.74999996  1.0
