# generated using pymatgen
data_AlFeO3
_symmetry_space_group_name_H-M   'P 1'
_cell_length_a   3.15755930
_cell_length_b   3.15755926
_cell_length_c   11.85146591
_cell_angle_alpha   90.00000027
_cell_angle_beta   89.99999930
_cell_angle_gamma   120.00004982
_symmetry_Int_Tables_number   1
_chemical_formula_structural   AlFeO3
_chemical_formula_sum   'Al2 Fe2 O6'
_cell_volume   102.33059770
_cell_formula_units_Z   2
loop_
 _symmetry_equiv_pos_site_id
 _symmetry_equiv_pos_as_xyz
  1  'x, y, z'
loop_
 _atom_site_type_symbol
 _atom_site_label
 _atom_site_symmetry_multiplicity
 _atom_site_fract_x
 _atom_site_fract_y
 _atom_site_fract_z
 _atom_site_occupancy
  Al  Al0  1  0.66666667  0.33333333  0.25000000  1.0
  Al  Al1  1  0.33333333  0.66666667  0.75000000  1.0
  Fe  Fe2  1  0.00000000  0.99999999  0.99999999  1.0
  Fe  Fe3  1  0.99999999  0.99999999  0.50000000  1.0
  O  O4  1  0.99999975  0.00000026  0.25000000  1.0
  O  O5  1  0.00000027  0.99999976  0.75000000  1.0
  O  O6  1  0.66666667  0.33333333  0.41357062  1.0
  O  O7  1  0.66666667  0.33333333  0.08642939  1.0
  O  O8  1  0.33333333  0.66666667  0.58642939  1.0
  O  O9  1  0.33333333  0.66666667  0.91357062  1.0
