# generated using pymatgen
data_AlGa3N4
_symmetry_space_group_name_H-M   'P 1'
_cell_length_a   4.53899926
_cell_length_b   4.53899921
_cell_length_c   4.53899945
_cell_angle_alpha   89.99999975
_cell_angle_beta   90.00000126
_cell_angle_gamma   89.99999950
_symmetry_Int_Tables_number   1
_chemical_formula_structural   AlGa3N4
_chemical_formula_sum   'Al1 Ga3 N4'
_cell_volume   93.51479997
_cell_formula_units_Z   1
loop_
 _symmetry_equiv_pos_site_id
 _symmetry_equiv_pos_as_xyz
  1  'x, y, z'
loop_
 _atom_site_type_symbol
 _atom_site_label
 _atom_site_symmetry_multiplicity
 _atom_site_fract_x
 _atom_site_fract_y
 _atom_site_fract_z
 _atom_site_occupancy
  Al  Al0  1  0.00000001  0.00000000  0.00000000  1.0
  Ga  Ga1  1  0.49999999  0.49999999  0.00000001  1.0
  Ga  Ga2  1  0.50000000  0.99999999  0.50000000  1.0
  Ga  Ga3  1  0.00000000  0.50000000  0.50000001  1.0
  N  N4  1  0.75583786  0.75583787  0.24416212  1.0
  N  N5  1  0.75583787  0.24416214  0.75583787  1.0
  N  N6  1  0.24416214  0.75583787  0.75583786  1.0
  N  N7  1  0.24416214  0.24416215  0.24416213  1.0
