# generated using pymatgen
data_AlInO3
_symmetry_space_group_name_H-M   'P 1'
_cell_length_a   3.40144252
_cell_length_b   3.40144271
_cell_length_c   12.36996257
_cell_angle_alpha   89.99999959
_cell_angle_beta   90.00000066
_cell_angle_gamma   120.00005716
_symmetry_Int_Tables_number   1
_chemical_formula_structural   AlInO3
_chemical_formula_sum   'Al2 In2 O6'
_cell_volume   123.94387332
_cell_formula_units_Z   2
loop_
 _symmetry_equiv_pos_site_id
 _symmetry_equiv_pos_as_xyz
  1  'x, y, z'
loop_
 _atom_site_type_symbol
 _atom_site_label
 _atom_site_symmetry_multiplicity
 _atom_site_fract_x
 _atom_site_fract_y
 _atom_site_fract_z
 _atom_site_occupancy
  Al  Al0  1  0.00000000  0.00000000  0.50000001  1.0
  Al  Al1  1  0.00000000  0.00000000  0.99999999  1.0
  In  In2  1  0.66666667  0.33333333  0.75000000  1.0
  In  In3  1  0.33333333  0.66666667  0.25000000  1.0
  O  O4  1  0.33333333  0.66666667  0.43054840  1.0
  O  O5  1  0.66666667  0.33333333  0.93054840  1.0
  O  O6  1  0.66666667  0.33333333  0.56945161  1.0
  O  O7  1  0.33333333  0.66666667  0.06945160  1.0
  O  O8  1  0.00000014  0.99999974  0.25000000  1.0
  O  O9  1  0.99999985  0.00000024  0.75000000  1.0
