# generated using pymatgen
data_AlInO3
_symmetry_space_group_name_H-M   'P 1'
_cell_length_a   5.15185361
_cell_length_b   5.33112559
_cell_length_c   7.53572376
_cell_angle_alpha   90.00000342
_cell_angle_beta   89.99999957
_cell_angle_gamma   90.00000113
_symmetry_Int_Tables_number   1
_chemical_formula_structural   AlInO3
_chemical_formula_sum   'Al4 In4 O12'
_cell_volume   206.96999907
_cell_formula_units_Z   4
loop_
 _symmetry_equiv_pos_site_id
 _symmetry_equiv_pos_as_xyz
  1  'x, y, z'
loop_
 _atom_site_type_symbol
 _atom_site_label
 _atom_site_symmetry_multiplicity
 _atom_site_fract_x
 _atom_site_fract_y
 _atom_site_fract_z
 _atom_site_occupancy
  Al  Al0  1  0.50000010  0.00000007  0.50000002  1.0
  Al  Al1  1  0.00000000  0.50000002  0.50000001  1.0
  Al  Al2  1  0.99999989  0.49999992  0.99999996  1.0
  Al  Al3  1  0.50000000  0.99999996  0.99999997  1.0
  In  In4  1  0.01773276  0.94609452  0.74999989  1.0
  In  In5  1  0.51773259  0.55390541  0.25000002  1.0
  In  In6  1  0.48226725  0.44609450  0.74999999  1.0
  In  In7  1  0.98226738  0.05390540  0.24999990  1.0
  O  O8  1  0.69718205  0.29931553  0.44173379  1.0
  O  O9  1  0.19718222  0.20068479  0.55826626  1.0
  O  O10  1  0.80281798  0.79931544  0.05826619  1.0
  O  O11  1  0.30281795  0.70068442  0.94173385  1.0
  O  O12  1  0.30281796  0.70068469  0.55826622  1.0
  O  O13  1  0.80281817  0.79931562  0.44173391  1.0
  O  O14  1  0.19718186  0.20068437  0.94173388  1.0
  O  O15  1  0.69718183  0.29931552  0.05826610  1.0
  O  O16  1  0.11046288  0.45459486  0.25000002  1.0
  O  O17  1  0.61046303  0.04540507  0.75000001  1.0
  O  O18  1  0.38953711  0.95459485  0.25000006  1.0
  O  O19  1  0.88953700  0.54540503  0.74999998  1.0
