# generated using pymatgen
data_AlMoO3
_symmetry_space_group_name_H-M   'P 1'
_cell_length_a   3.32768368
_cell_length_b   3.32768373
_cell_length_c   12.24916460
_cell_angle_alpha   89.99999959
_cell_angle_beta   89.99999991
_cell_angle_gamma   120.00005558
_symmetry_Int_Tables_number   1
_chemical_formula_structural   AlMoO3
_chemical_formula_sum   'Al2 Mo2 O6'
_cell_volume   117.46836910
_cell_formula_units_Z   2
loop_
 _symmetry_equiv_pos_site_id
 _symmetry_equiv_pos_as_xyz
  1  'x, y, z'
loop_
 _atom_site_type_symbol
 _atom_site_label
 _atom_site_symmetry_multiplicity
 _atom_site_fract_x
 _atom_site_fract_y
 _atom_site_fract_z
 _atom_site_occupancy
  Al  Al0  1  0.00000000  0.00000000  0.50000000  1.0
  Al  Al1  1  0.00000000  0.00000000  0.00000000  1.0
  Mo  Mo2  1  0.66666667  0.33333333  0.75000000  1.0
  Mo  Mo3  1  0.33333333  0.66666667  0.25000001  1.0
  O  O4  1  0.33333333  0.66666667  0.42799453  1.0
  O  O5  1  0.66666667  0.33333333  0.92799453  1.0
  O  O6  1  0.66666667  0.33333333  0.57200547  1.0
  O  O7  1  0.33333333  0.66666667  0.07200547  1.0
  O  O8  1  0.99999988  0.00000010  0.24999999  1.0
  O  O9  1  0.00000011  0.99999989  0.75000000  1.0
