# generated using pymatgen
data_As3O7F
_symmetry_space_group_name_H-M   'P 1'
_cell_length_a   6.34641690
_cell_length_b   6.34641690
_cell_length_c   3.91092400
_cell_angle_alpha   90.00000000
_cell_angle_beta   90.00000000
_cell_angle_gamma   117.82447726
_symmetry_Int_Tables_number   1
_chemical_formula_structural   As3O7F
_chemical_formula_sum   'As3 O7 F1'
_cell_volume   139.30807623
_cell_formula_units_Z   1
loop_
 _symmetry_equiv_pos_site_id
 _symmetry_equiv_pos_as_xyz
  1  'x, y, z'
loop_
 _atom_type_symbol
 _atom_type_oxidation_number
  As5+  5.0
  O2-  -2.0
  F-  -1.0
loop_
 _atom_site_type_symbol
 _atom_site_label
 _atom_site_symmetry_multiplicity
 _atom_site_fract_x
 _atom_site_fract_y
 _atom_site_fract_z
 _atom_site_occupancy
  As5+  As0  1  0.00000000  0.00000000  0.00000000  1.0
  As5+  As1  1  0.69881600  0.30118400  0.00000000  1.0
  As5+  As2  1  0.30118400  0.69881600  0.00000000  1.0
  O2-  O3  1  0.33796700  0.04583100  0.00000000  1.0
  O2-  O4  1  0.04583100  0.33796700  0.00000000  1.0
  O2-  O5  1  0.00000000  0.00000000  0.50000000  1.0
  O2-  O6  1  0.68915200  0.31084800  0.50000000  1.0
  O2-  O7  1  0.31084800  0.68915200  0.50000000  1.0
  O2-  O8  1  0.66203300  0.95416900  0.00000000  1.0
  O2-  O9  1  0.95416900  0.66203300  0.00000000  1.0
  F-  F10  1  0.50000000  0.50000000  0.00000000  1.0
