# generated using pymatgen
data_AsNO
_symmetry_space_group_name_H-M   'P 1'
_cell_length_a   6.37726898
_cell_length_b   6.37726902
_cell_length_c   6.21701694
_cell_angle_alpha   73.45514880
_cell_angle_beta   73.45514915
_cell_angle_gamma   34.76343045
_symmetry_Int_Tables_number   1
_chemical_formula_structural   AsNO
_chemical_formula_sum   'As4 N4 O4'
_cell_volume   137.60076585
_cell_formula_units_Z   4
loop_
 _symmetry_equiv_pos_site_id
 _symmetry_equiv_pos_as_xyz
  1  'x, y, z'
loop_
 _atom_site_type_symbol
 _atom_site_label
 _atom_site_symmetry_multiplicity
 _atom_site_fract_x
 _atom_site_fract_y
 _atom_site_fract_z
 _atom_site_occupancy
  As  As0  1  0.89746023  0.89746023  0.19910546  1.0
  As  As1  1  0.80789402  0.80789404  0.79225490  1.0
  As  As2  1  0.19210598  0.19210597  0.20774509  1.0
  As  As3  1  0.10253979  0.10253971  0.80089454  1.0
  N  N4  1  0.94229292  0.94229287  0.87617268  1.0
  N  N5  1  0.74065096  0.74065096  0.15647343  1.0
  N  N6  1  0.25934903  0.25934904  0.84352657  1.0
  N  N7  1  0.05770712  0.05770714  0.12382731  1.0
  O  O8  1  0.35319012  0.35319009  0.22337403  1.0
  O  O9  1  0.88335577  0.88335571  0.49947960  1.0
  O  O10  1  0.11664421  0.11664433  0.50052043  1.0
  O  O11  1  0.64680987  0.64680990  0.77662598  1.0
