# generated using pymatgen
data_BaLiLaWO6
_symmetry_space_group_name_H-M   'P 1'
_cell_length_a   5.72314975
_cell_length_b   5.72314975
_cell_length_c   5.72314975
_cell_angle_alpha   60.00000000
_cell_angle_beta   60.00000000
_cell_angle_gamma   60.00000000
_symmetry_Int_Tables_number   1
_chemical_formula_structural   BaLiLaWO6
_chemical_formula_sum   'Ba1 Li1 La1 W1 O6'
_cell_volume   132.55323496
_cell_formula_units_Z   1
loop_
 _symmetry_equiv_pos_site_id
 _symmetry_equiv_pos_as_xyz
  1  'x, y, z'
loop_
 _atom_type_symbol
 _atom_type_oxidation_number
  Ba2+  2.0
  Li+  1.0
  La3+  3.0
  W6+  6.0
  O2-  -2.0
loop_
 _atom_site_type_symbol
 _atom_site_label
 _atom_site_symmetry_multiplicity
 _atom_site_fract_x
 _atom_site_fract_y
 _atom_site_fract_z
 _atom_site_occupancy
  Ba2+  Ba0  1  0.75000000  0.75000000  0.75000000  1.0
  Li+  Li1  1  0.00000000  0.00000000  0.00000000  1.0
  La3+  La2  1  0.25000000  0.25000000  0.25000000  1.0
  W6+  W3  1  0.50000000  0.50000000  0.50000000  1.0
  O2-  O4  1  0.74005700  0.25994300  0.25994300  1.0
  O2-  O5  1  0.25994300  0.25994300  0.74005700  1.0
  O2-  O6  1  0.25994300  0.74005700  0.25994300  1.0
  O2-  O7  1  0.74005700  0.25994300  0.74005700  1.0
  O2-  O8  1  0.74005700  0.74005700  0.25994300  1.0
  O2-  O9  1  0.25994300  0.74005700  0.74005700  1.0
