# generated using pymatgen
data_BaTeO3
_symmetry_space_group_name_H-M   'P 1'
_cell_length_a   6.21298400
_cell_length_b   6.21298389
_cell_length_c   10.63865734
_cell_angle_alpha   90.00001649
_cell_angle_beta   89.99999168
_cell_angle_gamma   120.00003293
_symmetry_Int_Tables_number   1
_chemical_formula_structural   BaTeO3
_chemical_formula_sum   'Ba4 Te4 O12'
_cell_volume   355.64587122
_cell_formula_units_Z   4
loop_
 _symmetry_equiv_pos_site_id
 _symmetry_equiv_pos_as_xyz
  1  'x, y, z'
loop_
 _atom_site_type_symbol
 _atom_site_label
 _atom_site_symmetry_multiplicity
 _atom_site_fract_x
 _atom_site_fract_y
 _atom_site_fract_z
 _atom_site_occupancy
  Ba  Ba0  1  0.66666667  0.33333333  0.74998579  1.0
  Ba  Ba1  1  0.33333333  0.66666667  0.24998975  1.0
  Ba  Ba2  1  0.00000003  0.00000014  0.50001451  1.0
  Ba  Ba3  1  0.00000006  0.00000017  0.99987527  1.0
  Te  Te4  1  0.66666667  0.33333333  0.38788909  1.0
  Te  Te5  1  0.33333333  0.66666667  0.88789424  1.0
  Te  Te6  1  0.33333333  0.66666667  0.61193499  1.0
  Te  Te7  1  0.66666667  0.33333333  0.11193892  1.0
  O  O8  1  0.64723397  0.82361609  0.75006860  1.0
  O  O9  1  0.82358238  0.64716684  0.25006878  1.0
  O  O10  1  0.82358483  0.17641763  0.25006934  1.0
  O  O11  1  0.17638440  0.82361819  0.75006914  1.0
  O  O12  1  0.17638136  0.35276579  0.75006819  1.0
  O  O13  1  0.35283288  0.17641499  0.25006905  1.0
  O  O14  1  0.49995318  0.50004468  0.50001282  1.0
  O  O15  1  0.99994262  0.49997265  0.00000875  1.0
  O  O16  1  0.50002809  0.49997016  0.00000892  1.0
  O  O17  1  0.00009120  0.50004678  0.50001273  1.0
  O  O18  1  0.49995548  0.99990893  0.50001268  1.0
  O  O19  1  0.50002948  0.00005698  0.00000843  1.0
