# generated using pymatgen
data_Be(GaO2)2
_symmetry_space_group_name_H-M   'P 1'
_cell_length_a   4.42148734
_cell_length_b   5.46804335
_cell_length_c   9.39372523
_cell_angle_alpha   90.00000000
_cell_angle_beta   90.00000000
_cell_angle_gamma   90.00000000
_symmetry_Int_Tables_number   1
_chemical_formula_structural   Be(GaO2)2
_chemical_formula_sum   'Be4 Ga8 O16'
_cell_volume   227.11100941
_cell_formula_units_Z   4
loop_
 _symmetry_equiv_pos_site_id
 _symmetry_equiv_pos_as_xyz
  1  'x, y, z'
loop_
 _atom_type_symbol
 _atom_type_oxidation_number
  Be2+  2.0
  Ga3+  3.0
  O2-  -2.0
loop_
 _atom_site_type_symbol
 _atom_site_label
 _atom_site_symmetry_multiplicity
 _atom_site_fract_x
 _atom_site_fract_y
 _atom_site_fract_z
 _atom_site_occupancy
  Be2+  Be0  1  0.06660599  0.25000000  0.59243377  1.0
  Be2+  Be1  1  0.93339401  0.75000000  0.40756623  1.0
  Be2+  Be2  1  0.43339401  0.25000000  0.09243377  1.0
  Be2+  Be3  1  0.56660599  0.75000000  0.90756623  1.0
  Ga3+  Ga4  1  0.49478183  0.75000000  0.22748873  1.0
  Ga3+  Ga5  1  0.99478183  0.25000000  0.27251127  1.0
  Ga3+  Ga6  1  0.50521817  0.25000000  0.77251127  1.0
  Ga3+  Ga7  1  0.00521817  0.75000000  0.72748873  1.0
  Ga3+  Ga8  1  0.50000000  0.50000000  0.50000000  1.0
  Ga3+  Ga9  1  0.00000000  0.50000000  0.00000000  1.0
  Ga3+  Ga10  1  0.50000000  0.00000000  0.50000000  1.0
  Ga3+  Ga11  1  0.00000000  0.00000000  0.00000000  1.0
  O2-  O12  1  0.75660239  0.51547486  0.33669928  1.0
  O2-  O13  1  0.25660239  0.48452514  0.16330072  1.0
  O2-  O14  1  0.24339761  0.01547486  0.66330072  1.0
  O2-  O15  1  0.74339761  0.98452514  0.83669928  1.0
  O2-  O16  1  0.25660239  0.01547486  0.16330072  1.0
  O2-  O17  1  0.24339761  0.48452514  0.66330072  1.0
  O2-  O18  1  0.75660239  0.98452514  0.33669928  1.0
  O2-  O19  1  0.74339761  0.51547486  0.83669928  1.0
  O2-  O20  1  0.21255557  0.75000000  0.90966647  1.0
  O2-  O21  1  0.71255557  0.25000000  0.59033353  1.0
  O2-  O22  1  0.78744443  0.25000000  0.09033353  1.0
  O2-  O23  1  0.28744443  0.75000000  0.40966647  1.0
  O2-  O24  1  0.75900366  0.75000000  0.56684871  1.0
  O2-  O25  1  0.25900366  0.25000000  0.93315129  1.0
  O2-  O26  1  0.24099634  0.25000000  0.43315129  1.0
  O2-  O27  1  0.74099634  0.75000000  0.06684871  1.0
