# generated using pymatgen
data_Be2FeN2
_symmetry_space_group_name_H-M   'P 1'
_cell_length_a   2.93007606
_cell_length_b   2.93007595
_cell_length_c   5.28884131
_cell_angle_alpha   90.00000577
_cell_angle_beta   89.99999616
_cell_angle_gamma   119.99937630
_symmetry_Int_Tables_number   1
_chemical_formula_structural   Be2FeN2
_chemical_formula_sum   'Be2 Fe1 N2'
_cell_volume   39.32345508
_cell_formula_units_Z   1
loop_
 _symmetry_equiv_pos_site_id
 _symmetry_equiv_pos_as_xyz
  1  'x, y, z'
loop_
 _atom_site_type_symbol
 _atom_site_label
 _atom_site_symmetry_multiplicity
 _atom_site_fract_x
 _atom_site_fract_y
 _atom_site_fract_z
 _atom_site_occupancy
  Be  Be0  1  0.66666667  0.33333333  0.36288482  1.0
  Be  Be1  1  0.33333333  0.66666667  0.63711518  1.0
  Fe  Fe2  1  0.00000000  0.00000000  0.00000000  1.0
  N  N3  1  0.66666667  0.33333333  0.71313122  1.0
  N  N4  1  0.33333333  0.66666667  0.28686878  1.0
