# generated using pymatgen
data_Be2HgN2
_symmetry_space_group_name_H-M   'P 1'
_cell_length_a   3.02857012
_cell_length_b   3.02857043
_cell_length_c   6.16176167
_cell_angle_alpha   89.99843327
_cell_angle_beta   90.00156267
_cell_angle_gamma   119.99895459
_symmetry_Int_Tables_number   1
_chemical_formula_structural   Be2HgN2
_chemical_formula_sum   'Be2 Hg1 N2'
_cell_volume   48.94579801
_cell_formula_units_Z   1
loop_
 _symmetry_equiv_pos_site_id
 _symmetry_equiv_pos_as_xyz
  1  'x, y, z'
loop_
 _atom_site_type_symbol
 _atom_site_label
 _atom_site_symmetry_multiplicity
 _atom_site_fract_x
 _atom_site_fract_y
 _atom_site_fract_z
 _atom_site_occupancy
  Be  Be0  1  0.66666667  0.33333333  0.37438081  1.0
  Be  Be1  1  0.33333333  0.66666667  0.62561917  1.0
  Hg  Hg2  1  0.99999999  0.00000000  0.99999999  1.0
  N  N3  1  0.66666667  0.33333333  0.67587102  1.0
  N  N4  1  0.33333333  0.66666667  0.32412900  1.0
