# generated using pymatgen
data_Be2ZnN2
_symmetry_space_group_name_H-M   'P 1'
_cell_length_a   2.98051025
_cell_length_b   2.98051014
_cell_length_c   5.21744206
_cell_angle_alpha   89.99979268
_cell_angle_beta   90.00021387
_cell_angle_gamma   119.99924494
_symmetry_Int_Tables_number   1
_chemical_formula_structural   Be2ZnN2
_chemical_formula_sum   'Be2 Zn1 N2'
_cell_volume   40.13957726
_cell_formula_units_Z   1
loop_
 _symmetry_equiv_pos_site_id
 _symmetry_equiv_pos_as_xyz
  1  'x, y, z'
loop_
 _atom_site_type_symbol
 _atom_site_label
 _atom_site_symmetry_multiplicity
 _atom_site_fract_x
 _atom_site_fract_y
 _atom_site_fract_z
 _atom_site_occupancy
  Be  Be0  1  0.66666667  0.33333333  0.36660016  1.0
  Be  Be1  1  0.33333333  0.66666667  0.63339985  1.0
  Zn  Zn2  1  0.00000002  0.00000001  0.00000001  1.0
  N  N3  1  0.66666667  0.33333333  0.71499685  1.0
  N  N4  1  0.33333333  0.66666667  0.28500313  1.0
