# generated using pymatgen
data_BeCr2O4
_symmetry_space_group_name_H-M   'P 1'
_cell_length_a   4.62996565
_cell_length_b   5.83798028
_cell_length_c   10.02942632
_cell_angle_alpha   89.99999936
_cell_angle_beta   89.99999947
_cell_angle_gamma   90.00000000
_symmetry_Int_Tables_number   1
_chemical_formula_structural   BeCr2O4
_chemical_formula_sum   'Be4 Cr8 O16'
_cell_volume   271.09186469
_cell_formula_units_Z   4
loop_
 _symmetry_equiv_pos_site_id
 _symmetry_equiv_pos_as_xyz
  1  'x, y, z'
loop_
 _atom_site_type_symbol
 _atom_site_label
 _atom_site_symmetry_multiplicity
 _atom_site_fract_x
 _atom_site_fract_y
 _atom_site_fract_z
 _atom_site_occupancy
  Be  Be0  1  0.06979498  0.25000000  0.59246705  1.0
  Be  Be1  1  0.93020503  0.75000000  0.40753295  1.0
  Be  Be2  1  0.43020504  0.24999999  0.09246738  1.0
  Be  Be3  1  0.56979495  0.75000000  0.90753262  1.0
  Cr  Cr4  1  0.49721040  0.75000000  0.23052980  1.0
  Cr  Cr5  1  0.99721033  0.25000000  0.26947022  1.0
  Cr  Cr6  1  0.50278960  0.25000000  0.76947019  1.0
  Cr  Cr7  1  0.00278968  0.75000000  0.73052978  1.0
  Cr  Cr8  1  0.50000000  0.49999998  0.50000001  1.0
  Cr  Cr9  1  0.99999999  0.50000000  0.00000000  1.0
  Cr  Cr10  1  0.50000000  0.00000002  0.50000001  1.0
  Cr  Cr11  1  0.99999999  0.00000000  0.00000000  1.0
  O  O12  1  0.76118346  0.52519916  0.33702883  1.0
  O  O13  1  0.26118346  0.47480089  0.16297120  1.0
  O  O14  1  0.23881656  0.02519916  0.66297120  1.0
  O  O15  1  0.73881655  0.97480087  0.83702877  1.0
  O  O16  1  0.26118344  0.02519912  0.16297123  1.0
  O  O17  1  0.23881655  0.47480085  0.66297117  1.0
  O  O18  1  0.76118344  0.97480084  0.33702880  1.0
  O  O19  1  0.73881654  0.52519911  0.83702880  1.0
  O  O20  1  0.22425853  0.75000000  0.90765687  1.0
  O  O21  1  0.72425856  0.25000000  0.59234296  1.0
  O  O22  1  0.77574146  0.25000000  0.09234313  1.0
  O  O23  1  0.27574143  0.75000000  0.40765704  1.0
  O  O24  1  0.77104625  0.75000001  0.55971652  1.0
  O  O25  1  0.27104627  0.24999999  0.94028356  1.0
  O  O26  1  0.22895376  0.25000000  0.44028348  1.0
  O  O27  1  0.72895371  0.75000001  0.05971644  1.0
