# generated using pymatgen
data_BeSiN2
_symmetry_space_group_name_H-M   'P 1'
_cell_length_a   5.03366429
_cell_length_b   5.81526313
_cell_length_c   4.73289819
_cell_angle_alpha   90.00000022
_cell_angle_beta   89.99999930
_cell_angle_gamma   89.99999936
_symmetry_Int_Tables_number   1
_chemical_formula_structural   BeSiN2
_chemical_formula_sum   'Be4 Si4 N8'
_cell_volume   138.54178559
_cell_formula_units_Z   4
loop_
 _symmetry_equiv_pos_site_id
 _symmetry_equiv_pos_as_xyz
  1  'x, y, z'
loop_
 _atom_site_type_symbol
 _atom_site_label
 _atom_site_symmetry_multiplicity
 _atom_site_fract_x
 _atom_site_fract_y
 _atom_site_fract_z
 _atom_site_occupancy
  Be  Be0  1  0.58295509  0.87477567  0.99029571  1.0
  Be  Be1  1  0.41704490  0.12522436  0.49029454  1.0
  Be  Be2  1  0.91704490  0.37477567  0.49029468  1.0
  Be  Be3  1  0.08295508  0.62522433  0.99029554  1.0
  Si  Si4  1  0.58547274  0.37499630  0.98989103  1.0
  Si  Si5  1  0.41452721  0.62500368  0.48989122  1.0
  Si  Si6  1  0.91452725  0.87499633  0.48989123  1.0
  Si  Si7  1  0.08547277  0.12500370  0.98989105  1.0
  N  N8  1  0.57942390  0.37743727  0.36469733  1.0
  N  N9  1  0.42057612  0.62256276  0.86469750  1.0
  N  N10  1  0.92057609  0.87743721  0.86469747  1.0
  N  N11  1  0.07942390  0.12256275  0.36469735  1.0
  N  N12  1  0.58396496  0.87247243  0.36911440  1.0
  N  N13  1  0.41603508  0.12752753  0.86911431  1.0
  N  N14  1  0.91603505  0.37247244  0.86911430  1.0
  N  N15  1  0.08396497  0.62752758  0.36911438  1.0
