# generated using pymatgen
data_Bi2Se2O7
_symmetry_space_group_name_H-M   'P 1'
_cell_length_a   7.59493415
_cell_length_b   7.59493378
_cell_length_c   7.59493395
_cell_angle_alpha   59.99995862
_cell_angle_beta   59.99996098
_cell_angle_gamma   59.99995909
_symmetry_Int_Tables_number   1
_chemical_formula_structural   Bi2Se2O7
_chemical_formula_sum   'Bi4 Se4 O14'
_cell_volume   309.78230702
_cell_formula_units_Z   2
loop_
 _symmetry_equiv_pos_site_id
 _symmetry_equiv_pos_as_xyz
  1  'x, y, z'
loop_
 _atom_site_type_symbol
 _atom_site_label
 _atom_site_symmetry_multiplicity
 _atom_site_fract_x
 _atom_site_fract_y
 _atom_site_fract_z
 _atom_site_occupancy
  Bi  Bi0  1  0.12499983  0.12499982  0.62500033  1.0
  Bi  Bi1  1  0.12499994  0.62500033  0.12499980  1.0
  Bi  Bi2  1  0.62500035  0.12499996  0.12499987  1.0
  Bi  Bi3  1  0.12499981  0.12499991  0.12499997  1.0
  Se  Se4  1  0.62499997  0.62499995  0.12499998  1.0
  Se  Se5  1  0.62500019  0.12500006  0.62499986  1.0
  Se  Se6  1  0.12499995  0.62500016  0.62500004  1.0
  Se  Se7  1  0.62499989  0.62499995  0.62500009  1.0
  O  O8  1  0.24999995  0.25000005  0.24999993  1.0
  O  O9  1  0.00000003  0.99999999  0.00000004  1.0
  O  O10  1  0.54468223  0.95531771  0.54468228  1.0
  O  O11  1  0.29468238  0.70531768  0.29468234  1.0
  O  O12  1  0.54468228  0.54468231  0.95531774  1.0
  O  O13  1  0.95531779  0.54468226  0.54468225  1.0
  O  O14  1  0.54468226  0.95531767  0.95531775  1.0
  O  O15  1  0.95531772  0.95531762  0.54468229  1.0
  O  O16  1  0.95531774  0.54468224  0.95531768  1.0
  O  O17  1  0.70531760  0.29468235  0.29468246  1.0
  O  O18  1  0.29468236  0.70531765  0.70531767  1.0
  O  O19  1  0.70531765  0.29468231  0.70531764  1.0
  O  O20  1  0.29468239  0.29468232  0.70531768  1.0
  O  O21  1  0.70531769  0.70531770  0.29468230  1.0
