# generated using pymatgen
data_BiBO3
_symmetry_space_group_name_H-M   'P 1'
_cell_length_a   3.60183446
_cell_length_b   3.60183469
_cell_length_c   3.60183452
_cell_angle_alpha   89.99999618
_cell_angle_beta   89.99999618
_cell_angle_gamma   89.99999682
_symmetry_Int_Tables_number   1
_chemical_formula_structural   BiBO3
_chemical_formula_sum   'Bi1 B1 O3'
_cell_volume   46.72736392
_cell_formula_units_Z   1
loop_
 _symmetry_equiv_pos_site_id
 _symmetry_equiv_pos_as_xyz
  1  'x, y, z'
loop_
 _atom_site_type_symbol
 _atom_site_label
 _atom_site_symmetry_multiplicity
 _atom_site_fract_x
 _atom_site_fract_y
 _atom_site_fract_z
 _atom_site_occupancy
  Bi  Bi0  1  0.99999999  0.00000002  0.00000001  1.0
  B  B1  1  0.50000002  0.50000006  0.50000007  1.0
  O  O2  1  0.50000001  0.99999993  0.50000000  1.0
  O  O3  1  0.50000000  0.50000001  0.99999993  1.0
  O  O4  1  0.99999997  0.49999998  0.50000000  1.0
