# generated using pymatgen
data_BMo3N4
_symmetry_space_group_name_H-M   'P 1'
_cell_length_a   4.21888500
_cell_length_b   4.21888500
_cell_length_c   4.21888500
_cell_angle_alpha   90.00000000
_cell_angle_beta   90.00000000
_cell_angle_gamma   90.00000000
_symmetry_Int_Tables_number   1
_chemical_formula_structural   BMo3N4
_chemical_formula_sum   'B1 Mo3 N4'
_cell_volume   75.09189464
_cell_formula_units_Z   1
loop_
 _symmetry_equiv_pos_site_id
 _symmetry_equiv_pos_as_xyz
  1  'x, y, z'
loop_
 _atom_type_symbol
 _atom_type_oxidation_number
  B3+  3.0
  Mo3+  3.0
  N3-  -3.0
loop_
 _atom_site_type_symbol
 _atom_site_label
 _atom_site_symmetry_multiplicity
 _atom_site_fract_x
 _atom_site_fract_y
 _atom_site_fract_z
 _atom_site_occupancy
  B3+  B3  1  0.00000000  0.00000000  0.00000000  1.0
  Mo3+  Mo0  1  0.50000000  0.50000000  0.00000000  1.0
  Mo3+  Mo1  1  0.50000000  0.00000000  0.50000000  1.0
  Mo3+  Mo2  1  0.00000000  0.50000000  0.50000000  1.0
  N3-  N4  1  0.77260900  0.77260900  0.22739100  1.0
  N3-  N5  1  0.77260900  0.22739100  0.77260900  1.0
  N3-  N6  1  0.22739100  0.77260900  0.77260900  1.0
  N3-  N7  1  0.22739100  0.22739100  0.22739100  1.0
