# generated using pymatgen
data_BPO4
_symmetry_space_group_name_H-M   'P 1'
_cell_length_a   4.58873132
_cell_length_b   4.58873152
_cell_length_c   2.42799236
_cell_angle_alpha   90.00001602
_cell_angle_beta   90.00001586
_cell_angle_gamma   102.96499967
_symmetry_Int_Tables_number   1
_chemical_formula_structural   BPO4
_chemical_formula_sum   'B1 P1 O4'
_cell_volume   49.82160225
_cell_formula_units_Z   1
loop_
 _symmetry_equiv_pos_site_id
 _symmetry_equiv_pos_as_xyz
  1  'x, y, z'
loop_
 _atom_site_type_symbol
 _atom_site_label
 _atom_site_symmetry_multiplicity
 _atom_site_fract_x
 _atom_site_fract_y
 _atom_site_fract_z
 _atom_site_occupancy
  B  B0  1  0.00000002  0.99999998  0.99999993  1.0
  P  P1  1  0.50000008  0.49999989  0.50000003  1.0
  O  O2  1  0.17854607  0.17854610  0.49999977  1.0
  O  O3  1  0.34168649  0.65831351  0.00000003  1.0
  O  O4  1  0.82145396  0.82145391  0.50000021  1.0
  O  O5  1  0.65831338  0.34168661  0.00000002  1.0
