# generated using pymatgen
data_CaAl2O4
_symmetry_space_group_name_H-M   'P 1'
_cell_length_a   6.06522195
_cell_length_b   6.06522201
_cell_length_c   6.06522206
_cell_angle_alpha   59.99994716
_cell_angle_beta   59.99994726
_cell_angle_gamma   59.99994692
_symmetry_Int_Tables_number   1
_chemical_formula_structural   CaAl2O4
_chemical_formula_sum   'Ca2 Al4 O8'
_cell_volume   157.77005889
_cell_formula_units_Z   2
loop_
 _symmetry_equiv_pos_site_id
 _symmetry_equiv_pos_as_xyz
  1  'x, y, z'
loop_
 _atom_site_type_symbol
 _atom_site_label
 _atom_site_symmetry_multiplicity
 _atom_site_fract_x
 _atom_site_fract_y
 _atom_site_fract_z
 _atom_site_occupancy
  Ca  Ca0  1  0.12500013  0.12500015  0.12500007  1.0
  Ca  Ca1  1  0.87499987  0.87499989  0.87499988  1.0
  Al  Al2  1  0.50000000  0.50000000  0.00000001  1.0
  Al  Al3  1  0.50000000  0.50000000  0.50000000  1.0
  Al  Al4  1  0.00000000  0.50000000  0.50000000  1.0
  Al  Al5  1  0.50000001  0.99999999  0.50000000  1.0
  O  O6  1  0.72978405  0.72978404  0.72978407  1.0
  O  O7  1  0.27021591  0.27021590  0.68935229  1.0
  O  O8  1  0.27021588  0.68935232  0.27021590  1.0
  O  O9  1  0.68935232  0.27021589  0.27021591  1.0
  O  O10  1  0.72978410  0.31064769  0.72978411  1.0
  O  O11  1  0.31064769  0.72978409  0.72978411  1.0
  O  O12  1  0.27021595  0.27021594  0.27021595  1.0
  O  O13  1  0.72978411  0.72978409  0.31064769  1.0
