# generated using pymatgen
data_CaSiN2
_symmetry_space_group_name_H-M   'P 1'
_cell_length_a   3.01272627
_cell_length_b   3.01272623
_cell_length_c   5.63028527
_cell_angle_alpha   74.48150984
_cell_angle_beta   74.48151008
_cell_angle_gamma   60.00020858
_symmetry_Int_Tables_number   1
_chemical_formula_structural   CaSiN2
_chemical_formula_sum   'Ca1 Si1 N2'
_cell_volume   42.09195343
_cell_formula_units_Z   1
loop_
 _symmetry_equiv_pos_site_id
 _symmetry_equiv_pos_as_xyz
  1  'x, y, z'
loop_
 _atom_site_type_symbol
 _atom_site_label
 _atom_site_symmetry_multiplicity
 _atom_site_fract_x
 _atom_site_fract_y
 _atom_site_fract_z
 _atom_site_occupancy
  Ca  Ca0  1  0.00000000  0.00000000  0.00000000  1.0
  Si  Si1  1  0.50000000  0.50000000  0.50000000  1.0
  N  N2  1  0.77054989  0.77054990  0.68834800  1.0
  N  N3  1  0.22945011  0.22945011  0.31165200  1.0
