# generated using pymatgen
data_CaSiO3
_symmetry_space_group_name_H-M   'P 1'
_cell_length_a   5.84965766
_cell_length_b   5.84965760
_cell_length_c   5.84965764
_cell_angle_alpha   50.59294533
_cell_angle_beta   50.59294516
_cell_angle_gamma   50.59294482
_symmetry_Int_Tables_number   1
_chemical_formula_structural   CaSiO3
_chemical_formula_sum   'Ca2 Si2 O6'
_cell_volume   110.12126059
_cell_formula_units_Z   2
loop_
 _symmetry_equiv_pos_site_id
 _symmetry_equiv_pos_as_xyz
  1  'x, y, z'
loop_
 _atom_site_type_symbol
 _atom_site_label
 _atom_site_symmetry_multiplicity
 _atom_site_fract_x
 _atom_site_fract_y
 _atom_site_fract_z
 _atom_site_occupancy
  Ca  Ca0  1  0.36661056  0.36661057  0.36661056  1.0
  Ca  Ca1  1  0.63338944  0.63338943  0.63338944  1.0
  Si  Si2  1  0.16163284  0.16163284  0.16163284  1.0
  Si  Si3  1  0.83836716  0.83836716  0.83836716  1.0
  O  O4  1  0.82904551  0.02944172  0.43827074  1.0
  O  O5  1  0.43827075  0.82904551  0.02944171  1.0
  O  O6  1  0.02944173  0.43827075  0.82904551  1.0
  O  O7  1  0.17095449  0.97055828  0.56172926  1.0
  O  O8  1  0.97055827  0.56172925  0.17095450  1.0
  O  O9  1  0.56172925  0.17095449  0.97055829  1.0
