# generated using pymatgen
data_CaTeO3
_symmetry_space_group_name_H-M   'P 1'
_cell_length_a   4.26714041
_cell_length_b   4.26713821
_cell_length_c   4.26713957
_cell_angle_alpha   90.00000027
_cell_angle_beta   90.00000255
_cell_angle_gamma   90.00000537
_symmetry_Int_Tables_number   1
_chemical_formula_structural   CaTeO3
_chemical_formula_sum   'Ca1 Te1 O3'
_cell_volume   77.69811652
_cell_formula_units_Z   1
loop_
 _symmetry_equiv_pos_site_id
 _symmetry_equiv_pos_as_xyz
  1  'x, y, z'
loop_
 _atom_site_type_symbol
 _atom_site_label
 _atom_site_symmetry_multiplicity
 _atom_site_fract_x
 _atom_site_fract_y
 _atom_site_fract_z
 _atom_site_occupancy
  Ca  Ca0  1  0.00000000  0.00000003  0.00000002  1.0
  Te  Te1  1  0.49999999  0.50000000  0.49999999  1.0
  O  O2  1  0.49999997  0.49999998  0.00000001  1.0
  O  O3  1  0.50000001  0.99999998  0.49999995  1.0
  O  O4  1  0.00000003  0.50000001  0.50000004  1.0
