# generated using pymatgen
data_CdGeS3
_symmetry_space_group_name_H-M   'P 1'
_cell_length_a   4.76664166
_cell_length_b   4.76666827
_cell_length_c   4.76658405
_cell_angle_alpha   89.99999207
_cell_angle_beta   89.99999135
_cell_angle_gamma   90.00000024
_symmetry_Int_Tables_number   1
_chemical_formula_structural   CdGeS3
_chemical_formula_sum   'Cd1 Ge1 S3'
_cell_volume   108.30155408
_cell_formula_units_Z   1
loop_
 _symmetry_equiv_pos_site_id
 _symmetry_equiv_pos_as_xyz
  1  'x, y, z'
loop_
 _atom_site_type_symbol
 _atom_site_label
 _atom_site_symmetry_multiplicity
 _atom_site_fract_x
 _atom_site_fract_y
 _atom_site_fract_z
 _atom_site_occupancy
  Cd  Cd0  1  0.00000007  0.99999996  0.99999992  1.0
  Ge  Ge1  1  0.49999994  0.49999999  0.49999998  1.0
  S  S2  1  0.50000001  0.50000007  0.00000001  1.0
  S  S3  1  0.50000001  0.00000000  0.49999997  1.0
  S  S4  1  0.99999998  0.49999998  0.50000012  1.0
