# generated using pymatgen
data_CdTeO3
_symmetry_space_group_name_H-M   'P 1'
_cell_length_a   4.20268479
_cell_length_b   4.20268141
_cell_length_c   4.20267643
_cell_angle_alpha   90.00000273
_cell_angle_beta   89.99999973
_cell_angle_gamma   90.00000300
_symmetry_Int_Tables_number   1
_chemical_formula_structural   CdTeO3
_chemical_formula_sum   'Cd1 Te1 O3'
_cell_volume   74.22996257
_cell_formula_units_Z   1
loop_
 _symmetry_equiv_pos_site_id
 _symmetry_equiv_pos_as_xyz
  1  'x, y, z'
loop_
 _atom_site_type_symbol
 _atom_site_label
 _atom_site_symmetry_multiplicity
 _atom_site_fract_x
 _atom_site_fract_y
 _atom_site_fract_z
 _atom_site_occupancy
  Cd  Cd0  1  0.00000001  0.99999998  0.00000002  1.0
  Te  Te1  1  0.49999998  0.50000005  0.49999999  1.0
  O  O2  1  0.49999999  0.50000002  0.99999998  1.0
  O  O3  1  0.50000001  0.99999992  0.50000003  1.0
  O  O4  1  0.00000002  0.50000003  0.49999998  1.0
