# generated using pymatgen
data_Ce2Bi2O7
_symmetry_space_group_name_H-M   'P 1'
_cell_length_a   7.85762802
_cell_length_b   7.85762660
_cell_length_c   7.85762937
_cell_angle_alpha   59.99994214
_cell_angle_beta   59.99995028
_cell_angle_gamma   59.99994419
_symmetry_Int_Tables_number   1
_chemical_formula_structural   Ce2Bi2O7
_chemical_formula_sum   'Ce4 Bi4 O14'
_cell_volume   343.05113332
_cell_formula_units_Z   2
loop_
 _symmetry_equiv_pos_site_id
 _symmetry_equiv_pos_as_xyz
  1  'x, y, z'
loop_
 _atom_site_type_symbol
 _atom_site_label
 _atom_site_symmetry_multiplicity
 _atom_site_fract_x
 _atom_site_fract_y
 _atom_site_fract_z
 _atom_site_occupancy
  Ce  Ce0  1  0.12499997  0.62500001  0.12500001  1.0
  Ce  Ce1  1  0.12500000  0.12499999  0.62500001  1.0
  Ce  Ce2  1  0.62500001  0.12500000  0.12500000  1.0
  Ce  Ce3  1  0.12500001  0.12499999  0.12499999  1.0
  Bi  Bi4  1  0.62499999  0.62500000  0.62500000  1.0
  Bi  Bi5  1  0.12500001  0.62499999  0.62499999  1.0
  Bi  Bi6  1  0.62500000  0.12500002  0.62500000  1.0
  Bi  Bi7  1  0.62499999  0.62499999  0.12500002  1.0
  O  O8  1  0.25541316  0.74458652  0.74458693  1.0
  O  O9  1  0.50541353  0.99458679  0.99458651  1.0
  O  O10  1  0.74458611  0.25541330  0.74458712  1.0
  O  O11  1  0.74458665  0.74458697  0.25541325  1.0
  O  O12  1  0.99999972  0.00000017  0.00000031  1.0
  O  O13  1  0.25541307  0.74458682  0.25541341  1.0
  O  O14  1  0.25541349  0.25541351  0.74458683  1.0
  O  O15  1  0.99458689  0.50541321  0.99458657  1.0
  O  O16  1  0.99458646  0.99458645  0.50541322  1.0
  O  O17  1  0.25000029  0.24999983  0.24999967  1.0
  O  O18  1  0.50541341  0.50541309  0.99458670  1.0
  O  O19  1  0.50541390  0.99458669  0.50541291  1.0
  O  O20  1  0.74458649  0.25541319  0.25541347  1.0
  O  O21  1  0.99458684  0.50541349  0.50541307  1.0
