# generated using pymatgen
data_CeAlO3
_symmetry_space_group_name_H-M   'P 1'
_cell_length_a   5.40231218
_cell_length_b   5.40231310
_cell_length_c   5.40233608
_cell_angle_alpha   60.25763188
_cell_angle_beta   60.25771757
_cell_angle_gamma   60.25781755
_symmetry_Int_Tables_number   1
_chemical_formula_structural   CeAlO3
_chemical_formula_sum   'Ce2 Al2 O6'
_cell_volume   112.13783960
_cell_formula_units_Z   2
loop_
 _symmetry_equiv_pos_site_id
 _symmetry_equiv_pos_as_xyz
  1  'x, y, z'
loop_
 _atom_site_type_symbol
 _atom_site_label
 _atom_site_symmetry_multiplicity
 _atom_site_fract_x
 _atom_site_fract_y
 _atom_site_fract_z
 _atom_site_occupancy
  Ce  Ce0  1  0.74999886  0.74999482  0.74999941  1.0
  Ce  Ce1  1  0.25000168  0.25000512  0.24999974  1.0
  Al  Al2  1  0.49999992  0.49999996  0.49999988  1.0
  Al  Al3  1  0.00000010  0.00000003  0.00000010  1.0
  O  O4  1  0.29676366  0.74999882  0.20323589  1.0
  O  O5  1  0.74999779  0.20323676  0.29676306  1.0
  O  O6  1  0.20323542  0.29676541  0.74999854  1.0
  O  O7  1  0.70323169  0.25000125  0.79676881  1.0
  O  O8  1  0.79676882  0.70323026  0.25000176  1.0
  O  O9  1  0.25000206  0.79676757  0.70323280  1.0
