# generated using pymatgen
data_CeAlO3
_symmetry_space_group_name_H-M   'P 1'
_cell_length_a   5.40627100
_cell_length_b   5.41719580
_cell_length_c   7.63639790
_cell_angle_alpha   90.09444030
_cell_angle_beta   90.01235211
_cell_angle_gamma   90.00675978
_symmetry_Int_Tables_number   1
_chemical_formula_structural   CeAlO3
_chemical_formula_sum   'Ce4 Al4 O12'
_cell_volume   223.64556550
_cell_formula_units_Z   4
loop_
 _symmetry_equiv_pos_site_id
 _symmetry_equiv_pos_as_xyz
  1  'x, y, z'
loop_
 _atom_site_type_symbol
 _atom_site_label
 _atom_site_symmetry_multiplicity
 _atom_site_fract_x
 _atom_site_fract_y
 _atom_site_fract_z
 _atom_site_occupancy
  Ce  Ce0  1  0.01083372  0.99759803  0.25025501  1.0
  Ce  Ce1  1  0.51077325  0.50146172  0.25056066  1.0
  Ce  Ce2  1  0.48882232  0.49769376  0.75020732  1.0
  Ce  Ce3  1  0.98881999  0.00250330  0.75028747  1.0
  Al  Al4  1  0.50005971  0.99965030  0.49990861  1.0
  Al  Al5  1  0.99989968  0.50052997  0.00023240  1.0
  Al  Al6  1  0.00013788  0.49966995  0.49977619  1.0
  Al  Al7  1  0.49988163  0.00011099  0.00017768  1.0
  O  O8  1  0.73445490  0.26513462  0.52655809  1.0
  O  O9  1  0.23336382  0.23406525  0.97362873  1.0
  O  O10  1  0.76605398  0.76524274  0.47334139  1.0
  O  O11  1  0.26667085  0.73408238  0.02641796  1.0
  O  O12  1  0.26679478  0.73323660  0.47311731  1.0
  O  O13  1  0.76676354  0.76708604  0.02595943  1.0
  O  O14  1  0.23397004  0.23379202  0.52587321  1.0
  O  O15  1  0.73302747  0.26692797  0.97394050  1.0
  O  O16  1  0.50320218  0.94935372  0.74989575  1.0
  O  O17  1  0.00375394  0.55075200  0.74991238  1.0
  O  O18  1  0.99608461  0.44965813  0.24982249  1.0
  O  O19  1  0.49663172  0.05145049  0.25012743  1.0
