# generated using pymatgen
data_CoBiO3
_symmetry_space_group_name_H-M   'P 1'
_cell_length_a   3.91719387
_cell_length_b   3.72350704
_cell_length_c   3.92340689
_cell_angle_alpha   89.99816947
_cell_angle_beta   90.00083232
_cell_angle_gamma   90.00246553
_symmetry_Int_Tables_number   1
_chemical_formula_structural   CoBiO3
_chemical_formula_sum   'Co1 Bi1 O3'
_cell_volume   57.22563168
_cell_formula_units_Z   1
loop_
 _symmetry_equiv_pos_site_id
 _symmetry_equiv_pos_as_xyz
  1  'x, y, z'
loop_
 _atom_site_type_symbol
 _atom_site_label
 _atom_site_symmetry_multiplicity
 _atom_site_fract_x
 _atom_site_fract_y
 _atom_site_fract_z
 _atom_site_occupancy
  Co  Co0  1  0.50000002  0.50000000  0.50000003  1.0
  Bi  Bi1  1  0.99999996  0.00000000  0.99999999  1.0
  O  O2  1  0.50000005  0.00000001  0.50000001  1.0
  O  O3  1  0.49999998  0.49999999  0.99999996  1.0
  O  O4  1  0.99999999  0.50000000  0.50000001  1.0
