# generated using pymatgen
data_CoBN2
_symmetry_space_group_name_H-M   'P 1'
_cell_length_a   2.81439600
_cell_length_b   2.81439600
_cell_length_c   4.14320400
_cell_angle_alpha   90.00000000
_cell_angle_beta   90.00000000
_cell_angle_gamma   90.00000000
_symmetry_Int_Tables_number   1
_chemical_formula_structural   CoBN2
_chemical_formula_sum   'Co1 B1 N2'
_cell_volume   32.81759318
_cell_formula_units_Z   1
loop_
 _symmetry_equiv_pos_site_id
 _symmetry_equiv_pos_as_xyz
  1  'x, y, z'
loop_
 _atom_type_symbol
 _atom_type_oxidation_number
  Co3+  3.0
  B3+  3.0
  N3-  -3.0
loop_
 _atom_site_type_symbol
 _atom_site_label
 _atom_site_symmetry_multiplicity
 _atom_site_fract_x
 _atom_site_fract_y
 _atom_site_fract_z
 _atom_site_occupancy
  Co3+  Co0  1  0.50000000  0.50000000  0.50000000  1.0
  B3+  B1  1  0.00000000  0.00000000  0.00000000  1.0
  N3-  N2  1  0.50000000  0.00000000  0.78995100  1.0
  N3-  N3  1  0.00000000  0.50000000  0.21004900  1.0
