# generated using pymatgen
data_CoIrO3
_symmetry_space_group_name_H-M   'P 1'
_cell_length_a   3.91529579
_cell_length_b   3.91529859
_cell_length_c   3.91529615
_cell_angle_alpha   90.00015951
_cell_angle_beta   89.99977259
_cell_angle_gamma   89.99984839
_symmetry_Int_Tables_number   1
_chemical_formula_structural   CoIrO3
_chemical_formula_sum   'Co1 Ir1 O3'
_cell_volume   60.01973626
_cell_formula_units_Z   1
loop_
 _symmetry_equiv_pos_site_id
 _symmetry_equiv_pos_as_xyz
  1  'x, y, z'
loop_
 _atom_site_type_symbol
 _atom_site_label
 _atom_site_symmetry_multiplicity
 _atom_site_fract_x
 _atom_site_fract_y
 _atom_site_fract_z
 _atom_site_occupancy
  Co  Co0  1  0.00000000  0.00000000  0.00000000  1.0
  Ir  Ir1  1  0.50000000  0.50000000  0.50000000  1.0
  O  O2  1  0.50000000  0.50000000  0.00000000  1.0
  O  O3  1  0.50000000  0.00000000  0.50000000  1.0
  O  O4  1  0.00000000  0.50000000  0.50000000  1.0
