# generated using pymatgen
data_CoOsO3
_symmetry_space_group_name_H-M   'P 1'
_cell_length_a   3.92673117
_cell_length_b   3.85521714
_cell_length_c   3.92480122
_cell_angle_alpha   90.00175790
_cell_angle_beta   89.97713785
_cell_angle_gamma   90.03954476
_symmetry_Int_Tables_number   1
_chemical_formula_structural   CoOsO3
_chemical_formula_sum   'Co1 Os1 O3'
_cell_volume   59.41519702
_cell_formula_units_Z   1
loop_
 _symmetry_equiv_pos_site_id
 _symmetry_equiv_pos_as_xyz
  1  'x, y, z'
loop_
 _atom_site_type_symbol
 _atom_site_label
 _atom_site_symmetry_multiplicity
 _atom_site_fract_x
 _atom_site_fract_y
 _atom_site_fract_z
 _atom_site_occupancy
  Co  Co0  1  0.00000000  0.00000000  0.00000000  1.0
  Os  Os1  1  0.50000000  0.50000000  0.50000000  1.0
  O  O2  1  0.50000000  0.50000000  0.00000000  1.0
  O  O3  1  0.50000000  0.00000000  0.50000000  1.0
  O  O4  1  0.00000000  0.50000000  0.50000000  1.0
