# generated using pymatgen
data_CoSbO4
_symmetry_space_group_name_H-M   'P 1'
_cell_length_a   3.15947283
_cell_length_b   4.64937486
_cell_length_c   4.64936155
_cell_angle_alpha   91.34949886
_cell_angle_beta   90.00000152
_cell_angle_gamma   89.99999485
_symmetry_Int_Tables_number   1
_chemical_formula_structural   CoSbO4
_chemical_formula_sum   'Co1 Sb1 O4'
_cell_volume   68.27819528
_cell_formula_units_Z   1
loop_
 _symmetry_equiv_pos_site_id
 _symmetry_equiv_pos_as_xyz
  1  'x, y, z'
loop_
 _atom_site_type_symbol
 _atom_site_label
 _atom_site_symmetry_multiplicity
 _atom_site_fract_x
 _atom_site_fract_y
 _atom_site_fract_z
 _atom_site_occupancy
  Co  Co0  1  0.50000001  0.50000001  0.50000000  1.0
  Sb  Sb1  1  0.00000000  0.00000000  0.00000001  1.0
  O  O2  1  0.99999999  0.69362703  0.69362595  1.0
  O  O3  1  0.49999996  0.19738941  0.80261070  1.0
  O  O4  1  0.50000005  0.80261058  0.19738930  1.0
  O  O5  1  0.99999999  0.30637298  0.30637405  1.0
