# generated using pymatgen
data_CoSiO3
_symmetry_space_group_name_H-M   'P 1'
_cell_length_a   2.74322503
_cell_length_b   4.97669077
_cell_length_c   6.78166758
_cell_angle_alpha   90.00003794
_cell_angle_beta   89.99984036
_cell_angle_gamma   105.99852350
_symmetry_Int_Tables_number   1
_chemical_formula_structural   CoSiO3
_chemical_formula_sum   'Co2 Si2 O6'
_cell_volume   88.99865331
_cell_formula_units_Z   2
loop_
 _symmetry_equiv_pos_site_id
 _symmetry_equiv_pos_as_xyz
  1  'x, y, z'
loop_
 _atom_site_type_symbol
 _atom_site_label
 _atom_site_symmetry_multiplicity
 _atom_site_fract_x
 _atom_site_fract_y
 _atom_site_fract_z
 _atom_site_occupancy
  Co  Co0  1  0.27502766  0.55005859  0.75000078  1.0
  Co  Co1  1  0.72496955  0.44994141  0.25000077  1.0
  Si  Si2  1  0.00000077  0.00000037  0.99999981  1.0
  Si  Si3  1  0.00000023  0.99999963  0.49999980  1.0
  O  O4  1  0.62321782  0.24643728  0.95303403  1.0
  O  O5  1  0.37678406  0.75356383  0.04696554  1.0
  O  O6  1  0.37678805  0.75356273  0.45303406  1.0
  O  O7  1  0.62321244  0.24643616  0.54696550  1.0
  O  O8  1  0.93603271  0.87205813  0.74999986  1.0
  O  O9  1  0.06396672  0.12794187  0.24999984  1.0
