# generated using pymatgen
data_CoSiO3
_symmetry_space_group_name_H-M   'P 1'
_cell_length_a   5.44123417
_cell_length_b   5.44119347
_cell_length_c   5.44130826
_cell_angle_alpha   52.53080599
_cell_angle_beta   52.53323075
_cell_angle_gamma   52.53314341
_symmetry_Int_Tables_number   1
_chemical_formula_structural   CoSiO3
_chemical_formula_sum   'Co2 Si2 O6'
_cell_volume   93.94647142
_cell_formula_units_Z   2
loop_
 _symmetry_equiv_pos_site_id
 _symmetry_equiv_pos_as_xyz
  1  'x, y, z'
loop_
 _atom_site_type_symbol
 _atom_site_label
 _atom_site_symmetry_multiplicity
 _atom_site_fract_x
 _atom_site_fract_y
 _atom_site_fract_z
 _atom_site_occupancy
  Co  Co0  1  0.36175535  0.36175721  0.36175805  1.0
  Co  Co1  1  0.63824463  0.63824242  0.63824233  1.0
  Si  Si2  1  0.15901939  0.15902524  0.15901701  1.0
  Si  Si3  1  0.84098065  0.84097473  0.84098298  1.0
  O  O4  1  0.79782292  0.04843600  0.43864931  1.0
  O  O5  1  0.43863768  0.79782793  0.04843824  1.0
  O  O6  1  0.04844078  0.43865851  0.79782101  1.0
  O  O7  1  0.20217711  0.95156424  0.56135051  1.0
  O  O8  1  0.95155928  0.56134179  0.20217908  1.0
  O  O9  1  0.56136223  0.20217192  0.95156149  1.0
