# generated using pymatgen
data_Cr2FeSe4
_symmetry_space_group_name_H-M   'P 1'
_cell_length_a   7.40690757
_cell_length_b   7.38245124
_cell_length_c   7.38242362
_cell_angle_alpha   59.99898996
_cell_angle_beta   60.10837503
_cell_angle_gamma   60.10773799
_symmetry_Int_Tables_number   1
_chemical_formula_structural   Cr2FeSe4
_chemical_formula_sum   'Cr4 Fe2 Se8'
_cell_volume   285.90749803
_cell_formula_units_Z   2
loop_
 _symmetry_equiv_pos_site_id
 _symmetry_equiv_pos_as_xyz
  1  'x, y, z'
loop_
 _atom_site_type_symbol
 _atom_site_label
 _atom_site_symmetry_multiplicity
 _atom_site_fract_x
 _atom_site_fract_y
 _atom_site_fract_z
 _atom_site_occupancy
  Cr  Cr0  1  0.12557400  0.62509912  0.12466403  1.0
  Cr  Cr1  1  0.12557237  0.12466272  0.62510033  1.0
  Cr  Cr2  1  0.12557295  0.12466171  0.12466494  1.0
  Cr  Cr3  1  0.62697868  0.12434000  0.12434144  1.0
  Fe  Fe4  1  0.74930887  0.75022716  0.75023639  1.0
  Fe  Fe5  1  0.49789650  0.50070823  0.50069151  1.0
  Se  Se6  1  0.88241648  0.35308731  0.88224709  1.0
  Se  Se7  1  0.37000089  0.37019839  0.88959689  1.0
  Se  Se8  1  0.36999799  0.37019612  0.37020596  1.0
  Se  Se9  1  0.88814131  0.37062809  0.37061369  1.0
  Se  Se10  1  0.88241518  0.88224669  0.88224808  1.0
  Se  Se11  1  0.35370968  0.88209567  0.88209670  1.0
  Se  Se12  1  0.37000146  0.88960409  0.37019953  1.0
  Se  Se13  1  0.88241366  0.88224571  0.35309142  1.0
