# generated using pymatgen
data_Cr2Si2O7
_symmetry_space_group_name_H-M   'P 1'
_cell_length_a   6.59353222
_cell_length_b   6.59353146
_cell_length_c   6.59355817
_cell_angle_alpha   59.99945780
_cell_angle_beta   59.99919106
_cell_angle_gamma   59.99907838
_symmetry_Int_Tables_number   1
_chemical_formula_structural   Cr2Si2O7
_chemical_formula_sum   'Cr4 Si4 O14'
_cell_volume   202.69059609
_cell_formula_units_Z   2
loop_
 _symmetry_equiv_pos_site_id
 _symmetry_equiv_pos_as_xyz
  1  'x, y, z'
loop_
 _atom_site_type_symbol
 _atom_site_label
 _atom_site_symmetry_multiplicity
 _atom_site_fract_x
 _atom_site_fract_y
 _atom_site_fract_z
 _atom_site_occupancy
  Cr  Cr0  1  0.12500000  0.12500000  0.12499999  1.0
  Cr  Cr1  1  0.62500000  0.12500000  0.12500000  1.0
  Cr  Cr2  1  0.12500000  0.12500000  0.62500000  1.0
  Cr  Cr3  1  0.12500000  0.62500000  0.12500000  1.0
  Si  Si4  1  0.62500000  0.62500000  0.62500000  1.0
  Si  Si5  1  0.12500000  0.62500000  0.62500000  1.0
  Si  Si6  1  0.62500000  0.62500000  0.12500000  1.0
  Si  Si7  1  0.62500000  0.12500000  0.62500000  1.0
  O  O8  1  0.69933308  0.69933363  0.30066845  1.0
  O  O9  1  0.94932727  0.94933083  0.55067442  1.0
  O  O10  1  0.30066675  0.69933990  0.30066690  1.0
  O  O11  1  0.30066934  0.69932969  0.69933480  1.0
  O  O12  1  0.69933125  0.30066748  0.30066975  1.0
  O  O13  1  0.69933550  0.30066629  0.69933169  1.0
  O  O14  1  0.94933325  0.55066010  0.94933309  1.0
  O  O15  1  0.55066450  0.94933371  0.55066831  1.0
  O  O16  1  0.99999859  0.00000230  0.99999809  1.0
  O  O17  1  0.25000142  0.24999770  0.25000191  1.0
  O  O18  1  0.30067273  0.30066917  0.69932559  1.0
  O  O19  1  0.55066875  0.94933253  0.94933025  1.0
  O  O20  1  0.94933066  0.55067031  0.55066520  1.0
  O  O21  1  0.55066692  0.55066637  0.94933155  1.0
