# generated using pymatgen
data_CrFeN2
_symmetry_space_group_name_H-M   'P 1'
_cell_length_a   5.33277338
_cell_length_b   5.33277338
_cell_length_c   5.33276903
_cell_angle_alpha   29.77306922
_cell_angle_beta   29.77306921
_cell_angle_gamma   29.77304075
_symmetry_Int_Tables_number   1
_chemical_formula_structural   CrFeN2
_chemical_formula_sum   'Cr1 Fe1 N2'
_cell_volume   33.11265752
_cell_formula_units_Z   1
loop_
 _symmetry_equiv_pos_site_id
 _symmetry_equiv_pos_as_xyz
  1  'x, y, z'
loop_
 _atom_site_type_symbol
 _atom_site_label
 _atom_site_symmetry_multiplicity
 _atom_site_fract_x
 _atom_site_fract_y
 _atom_site_fract_z
 _atom_site_occupancy
  Cr  Cr0  1  0.99831064  0.99831063  0.99831064  1.0
  Fe  Fe1  1  0.83187562  0.83187563  0.83187570  1.0
  N  N2  1  0.41397754  0.41397754  0.41397839  1.0
  N  N3  1  0.25063720  0.25063720  0.25063627  1.0
