# generated using pymatgen
data_CrGaN2
_symmetry_space_group_name_H-M   'P 1'
_cell_length_a   3.21963655
_cell_length_b   3.21963698
_cell_length_c   4.59364412
_cell_angle_alpha   89.99998723
_cell_angle_beta   89.99998663
_cell_angle_gamma   90.00001103
_symmetry_Int_Tables_number   1
_chemical_formula_structural   CrGaN2
_chemical_formula_sum   'Cr1 Ga1 N2'
_cell_volume   47.61799469
_cell_formula_units_Z   1
loop_
 _symmetry_equiv_pos_site_id
 _symmetry_equiv_pos_as_xyz
  1  'x, y, z'
loop_
 _atom_site_type_symbol
 _atom_site_label
 _atom_site_symmetry_multiplicity
 _atom_site_fract_x
 _atom_site_fract_y
 _atom_site_fract_z
 _atom_site_occupancy
  Cr  Cr0  1  0.50000000  0.50000010  0.50000009  1.0
  Ga  Ga1  1  0.99999997  0.99999994  0.00000004  1.0
  N  N2  1  0.00000002  0.49999994  0.25334261  1.0
  N  N3  1  0.50000000  0.00000002  0.74665725  1.0
