# generated using pymatgen
data_CsHgCl3
_symmetry_space_group_name_H-M   'P 1'
_cell_length_a   6.86116619
_cell_length_b   7.61948050
_cell_length_c   7.61948013
_cell_angle_alpha   60.00001019
_cell_angle_beta   89.99999269
_cell_angle_gamma   89.99999616
_symmetry_Int_Tables_number   1
_chemical_formula_structural   CsHgCl3
_chemical_formula_sum   'Cs2 Hg2 Cl6'
_cell_volume   344.96840281
_cell_formula_units_Z   2
loop_
 _symmetry_equiv_pos_site_id
 _symmetry_equiv_pos_as_xyz
  1  'x, y, z'
loop_
 _atom_site_type_symbol
 _atom_site_label
 _atom_site_symmetry_multiplicity
 _atom_site_fract_x
 _atom_site_fract_y
 _atom_site_fract_z
 _atom_site_occupancy
  Cs  Cs0  1  0.25000002  0.66666667  0.66666667  1.0
  Cs  Cs1  1  0.74999995  0.33333333  0.33333333  1.0
  Hg  Hg2  1  0.00000000  0.00000003  0.99999998  1.0
  Hg  Hg3  1  0.50000001  0.99999999  0.00000001  1.0
  Cl  Cl4  1  0.75000003  0.83783454  0.83783533  1.0
  Cl  Cl5  1  0.25000002  0.67567045  0.16216478  1.0
  Cl  Cl6  1  0.24999997  0.16216538  0.67567000  1.0
  Cl  Cl7  1  0.75000003  0.83783460  0.32433003  1.0
  Cl  Cl8  1  0.74999997  0.32432958  0.83783521  1.0
  Cl  Cl9  1  0.25000001  0.16216541  0.16216472  1.0
