# generated using pymatgen
data_CsPbCl3
_symmetry_space_group_name_H-M   'P 1'
_cell_length_a   7.39960682
_cell_length_b   7.83041567
_cell_length_c   7.83041313
_cell_angle_alpha   59.99992139
_cell_angle_beta   89.99998028
_cell_angle_gamma   89.99999875
_symmetry_Int_Tables_number   1
_chemical_formula_structural   CsPbCl3
_chemical_formula_sum   'Cs2 Pb2 Cl6'
_cell_volume   392.92388038
_cell_formula_units_Z   2
loop_
 _symmetry_equiv_pos_site_id
 _symmetry_equiv_pos_as_xyz
  1  'x, y, z'
loop_
 _atom_site_type_symbol
 _atom_site_label
 _atom_site_symmetry_multiplicity
 _atom_site_fract_x
 _atom_site_fract_y
 _atom_site_fract_z
 _atom_site_occupancy
  Cs  Cs0  1  0.25000000  0.66666667  0.66666667  1.0
  Cs  Cs1  1  0.74999994  0.33333333  0.33333333  1.0
  Pb  Pb2  1  0.00000015  0.99999997  0.99999998  1.0
  Pb  Pb3  1  0.50000000  0.99999999  0.99999998  1.0
  Cl  Cl4  1  0.75000000  0.83290460  0.83290560  1.0
  Cl  Cl5  1  0.24999998  0.66581040  0.16709480  1.0
  Cl  Cl6  1  0.25000006  0.16709544  0.66581015  1.0
  Cl  Cl7  1  0.74999992  0.83290458  0.33418983  1.0
  Cl  Cl8  1  0.75000000  0.33418957  0.83290518  1.0
  Cl  Cl9  1  0.24999995  0.16709539  0.16709440  1.0
