# generated using pymatgen
data_CuSbN2
_symmetry_space_group_name_H-M   'P 1'
_cell_length_a   3.21622609
_cell_length_b   3.21622606
_cell_length_c   5.65657526
_cell_angle_alpha   73.49917323
_cell_angle_beta   73.49917509
_cell_angle_gamma   59.99537170
_symmetry_Int_Tables_number   1
_chemical_formula_structural   CuSbN2
_chemical_formula_sum   'Cu1 Sb1 N2'
_cell_volume   47.86818754
_cell_formula_units_Z   1
loop_
 _symmetry_equiv_pos_site_id
 _symmetry_equiv_pos_as_xyz
  1  'x, y, z'
loop_
 _atom_site_type_symbol
 _atom_site_label
 _atom_site_symmetry_multiplicity
 _atom_site_fract_x
 _atom_site_fract_y
 _atom_site_fract_z
 _atom_site_occupancy
  Cu  Cu0  1  0.99999993  0.00000005  0.99999999  1.0
  Sb  Sb1  1  0.50000002  0.49999999  0.50000000  1.0
  N  N2  1  0.75790409  0.75790398  0.72625187  1.0
  N  N3  1  0.24209596  0.24209598  0.27374814  1.0
