# generated using pymatgen
data_CuSiN2
_symmetry_space_group_name_H-M   'P 1'
_cell_length_a   4.67669321
_cell_length_b   4.97589847
_cell_length_c   5.74861258
_cell_angle_alpha   90.00000000
_cell_angle_beta   90.00000000
_cell_angle_gamma   90.00000000
_symmetry_Int_Tables_number   1
_chemical_formula_structural   CuSiN2
_chemical_formula_sum   'Cu4 Si4 N8'
_cell_volume   133.77452958
_cell_formula_units_Z   4
loop_
 _symmetry_equiv_pos_site_id
 _symmetry_equiv_pos_as_xyz
  1  'x, y, z'
loop_
 _atom_type_symbol
 _atom_type_oxidation_number
  Cu2+  2.0
  Si4+  4.0
  N3-  -3.0
loop_
 _atom_site_type_symbol
 _atom_site_label
 _atom_site_symmetry_multiplicity
 _atom_site_fract_x
 _atom_site_fract_y
 _atom_site_fract_z
 _atom_site_occupancy
  Cu2+  Cu0  1  0.99908905  0.08273886  0.62514829  1.0
  Cu2+  Cu1  1  0.49908905  0.91726114  0.37485171  1.0
  Cu2+  Cu2  1  0.49908905  0.41726114  0.12514829  1.0
  Cu2+  Cu3  1  0.99908905  0.58273886  0.87485171  1.0
  Si4+  Si4  1  0.99959476  0.08519583  0.12502487  1.0
  Si4+  Si5  1  0.99959476  0.58519683  0.37497513  1.0
  Si4+  Si6  1  0.49959476  0.41480417  0.62502487  1.0
  Si4+  Si7  1  0.49959476  0.91480317  0.87497513  1.0
  N3-  N8  1  0.37965419  0.58478788  0.87159058  1.0
  N3-  N9  1  0.37366201  0.07893175  0.12176876  1.0
  N3-  N10  1  0.87965419  0.41521212  0.12840942  1.0
  N3-  N11  1  0.87965419  0.91521212  0.37159058  1.0
  N3-  N12  1  0.87366201  0.42106825  0.62176876  1.0
  N3-  N13  1  0.87366201  0.92106825  0.87823124  1.0
  N3-  N14  1  0.37366201  0.57893175  0.37823124  1.0
  N3-  N15  1  0.37965419  0.08478788  0.62840942  1.0
