# generated using pymatgen
data_DyInO3
_symmetry_space_group_name_H-M   'P 1'
_cell_length_a   5.56966593
_cell_length_b   5.87789224
_cell_length_c   8.21140976
_cell_angle_alpha   90.00000935
_cell_angle_beta   90.00000501
_cell_angle_gamma   90.00000040
_symmetry_Int_Tables_number   1
_chemical_formula_structural   DyInO3
_chemical_formula_sum   'Dy4 In4 O12'
_cell_volume   268.82427996
_cell_formula_units_Z   4
loop_
 _symmetry_equiv_pos_site_id
 _symmetry_equiv_pos_as_xyz
  1  'x, y, z'
loop_
 _atom_site_type_symbol
 _atom_site_label
 _atom_site_symmetry_multiplicity
 _atom_site_fract_x
 _atom_site_fract_y
 _atom_site_fract_z
 _atom_site_occupancy
  Dy  Dy0  1  0.02238249  0.93608520  0.74999995  1.0
  Dy  Dy1  1  0.47761746  0.43608539  0.75000008  1.0
  Dy  Dy2  1  0.52238239  0.56391485  0.24999992  1.0
  Dy  Dy3  1  0.97761754  0.06391467  0.25000004  1.0
  In  In4  1  0.00000023  0.50000014  0.99999994  1.0
  In  In5  1  0.00000017  0.50000025  0.50000007  1.0
  In  In6  1  0.50000024  0.99999968  0.00000022  1.0
  In  In7  1  0.49999979  0.99999979  0.49999994  1.0
  O  O8  1  0.14657152  0.42808984  0.25000002  1.0
  O  O9  1  0.18632935  0.18964525  0.57546912  1.0
  O  O10  1  0.18632948  0.18964548  0.92453059  1.0
  O  O11  1  0.31367053  0.68964530  0.57546931  1.0
  O  O12  1  0.31367052  0.68964531  0.92453077  1.0
  O  O13  1  0.35342846  0.92808986  0.25000009  1.0
  O  O14  1  0.64657153  0.07191016  0.74999988  1.0
  O  O15  1  0.68632941  0.31035461  0.07546918  1.0
  O  O16  1  0.68632945  0.31035464  0.42453068  1.0
  O  O17  1  0.81367040  0.81035474  0.07546936  1.0
  O  O18  1  0.81367061  0.81035468  0.42453086  1.0
  O  O19  1  0.85342842  0.57191014  0.74999995  1.0
