# generated using pymatgen
data_DySbO4
_symmetry_space_group_name_H-M   'P 1'
_cell_length_a   5.03297314
_cell_length_b   5.03297303
_cell_length_c   3.30115666
_cell_angle_alpha   90.00000028
_cell_angle_beta   90.00000080
_cell_angle_gamma   92.54737202
_symmetry_Int_Tables_number   1
_chemical_formula_structural   DySbO4
_chemical_formula_sum   'Dy1 Sb1 O4'
_cell_volume   83.53836583
_cell_formula_units_Z   1
loop_
 _symmetry_equiv_pos_site_id
 _symmetry_equiv_pos_as_xyz
  1  'x, y, z'
loop_
 _atom_site_type_symbol
 _atom_site_label
 _atom_site_symmetry_multiplicity
 _atom_site_fract_x
 _atom_site_fract_y
 _atom_site_fract_z
 _atom_site_occupancy
  Dy  Dy0  1  0.50000000  0.49999999  0.50000000  1.0
  Sb  Sb1  1  0.00000000  0.99999999  0.00000000  1.0
  O  O2  1  0.28365673  0.28365676  0.00000002  1.0
  O  O3  1  0.17973017  0.82026985  0.49999999  1.0
  O  O4  1  0.82026984  0.17973015  0.50000001  1.0
  O  O5  1  0.71634327  0.71634325  0.99999999  1.0
