# generated using pymatgen
data_DyScO3
_symmetry_space_group_name_H-M   'P 1'
_cell_length_a   5.48750689
_cell_length_b   5.77834410
_cell_length_c   7.99819428
_cell_angle_alpha   90.00000000
_cell_angle_beta   90.00000357
_cell_angle_gamma   90.00000295
_symmetry_Int_Tables_number   1
_chemical_formula_structural   DyScO3
_chemical_formula_sum   'Dy4 Sc4 O12'
_cell_volume   253.61236745
_cell_formula_units_Z   4
loop_
 _symmetry_equiv_pos_site_id
 _symmetry_equiv_pos_as_xyz
  1  'x, y, z'
loop_
 _atom_site_type_symbol
 _atom_site_label
 _atom_site_symmetry_multiplicity
 _atom_site_fract_x
 _atom_site_fract_y
 _atom_site_fract_z
 _atom_site_occupancy
  Dy  Dy0  1  0.01936396  0.93796187  0.75000005  1.0
  Dy  Dy1  1  0.48063603  0.43796171  0.75000002  1.0
  Dy  Dy2  1  0.51936398  0.56203821  0.24999997  1.0
  Dy  Dy3  1  0.98063599  0.06203830  0.24999998  1.0
  Sc  Sc4  1  0.00000006  0.49999999  0.00000006  1.0
  Sc  Sc5  1  0.99999992  0.49999989  0.49999999  1.0
  Sc  Sc6  1  0.50000007  0.00000003  0.00000000  1.0
  Sc  Sc7  1  0.50000001  0.99999988  0.49999995  1.0
  O  O8  1  0.13092215  0.44292604  0.25000003  1.0
  O  O9  1  0.18997804  0.19246076  0.56758982  1.0
  O  O10  1  0.18997797  0.19246068  0.93241041  1.0
  O  O11  1  0.31002200  0.69246075  0.56758980  1.0
  O  O12  1  0.31002204  0.69246062  0.93241033  1.0
  O  O13  1  0.36907783  0.94292603  0.25000003  1.0
  O  O14  1  0.63092221  0.05707399  0.74999998  1.0
  O  O15  1  0.68997794  0.30753932  0.06758961  1.0
  O  O16  1  0.68997804  0.30753929  0.43241025  1.0
  O  O17  1  0.81002205  0.80753936  0.06758958  1.0
  O  O18  1  0.81002193  0.80753931  0.43241014  1.0
  O  O19  1  0.86907778  0.55707398  0.74999997  1.0
