# generated using pymatgen
data_ErSbO4
_symmetry_space_group_name_H-M   'P 1'
_cell_length_a   5.00096641
_cell_length_b   5.00096550
_cell_length_c   3.28717033
_cell_angle_alpha   89.99999754
_cell_angle_beta   90.00000164
_cell_angle_gamma   92.65400978
_symmetry_Int_Tables_number   1
_chemical_formula_structural   ErSbO4
_chemical_formula_sum   'Er1 Sb1 O4'
_cell_volume   82.12283146
_cell_formula_units_Z   1
loop_
 _symmetry_equiv_pos_site_id
 _symmetry_equiv_pos_as_xyz
  1  'x, y, z'
loop_
 _atom_site_type_symbol
 _atom_site_label
 _atom_site_symmetry_multiplicity
 _atom_site_fract_x
 _atom_site_fract_y
 _atom_site_fract_z
 _atom_site_occupancy
  Er  Er0  1  0.49999988  0.50000010  0.49999997  1.0
  Sb  Sb1  1  0.00000001  0.00000000  0.00000000  1.0
  O  O2  1  0.28593701  0.28593699  0.99999996  1.0
  O  O3  1  0.18077081  0.81922921  0.50000001  1.0
  O  O4  1  0.81922925  0.18077077  0.50000001  1.0
  O  O5  1  0.71406305  0.71406292  0.00000005  1.0
