# generated using pymatgen
data_FeBiO3
_symmetry_space_group_name_H-M   'P 1'
_cell_length_a   3.96328162
_cell_length_b   3.96328062
_cell_length_c   3.96328201
_cell_angle_alpha   89.99999682
_cell_angle_beta   89.99999798
_cell_angle_gamma   90.00000289
_symmetry_Int_Tables_number   1
_chemical_formula_structural   FeBiO3
_chemical_formula_sum   'Fe1 Bi1 O3'
_cell_volume   62.25363755
_cell_formula_units_Z   1
loop_
 _symmetry_equiv_pos_site_id
 _symmetry_equiv_pos_as_xyz
  1  'x, y, z'
loop_
 _atom_site_type_symbol
 _atom_site_label
 _atom_site_symmetry_multiplicity
 _atom_site_fract_x
 _atom_site_fract_y
 _atom_site_fract_z
 _atom_site_occupancy
  Fe  Fe0  1  0.50000000  0.50000002  0.49999996  1.0
  Bi  Bi1  1  0.99999998  0.99999999  0.99999998  1.0
  O  O2  1  0.50000002  0.00000000  0.50000006  1.0
  O  O3  1  0.49999997  0.50000004  0.00000002  1.0
  O  O4  1  0.00000003  0.49999996  0.49999998  1.0
