# generated using pymatgen
data_FeBO3
_symmetry_space_group_name_H-M   'P 1'
_cell_length_a   5.64033676
_cell_length_b   5.64033665
_cell_length_c   5.64033698
_cell_angle_alpha   49.37552299
_cell_angle_beta   49.37552075
_cell_angle_gamma   49.37552211
_symmetry_Int_Tables_number   1
_chemical_formula_structural   FeBO3
_chemical_formula_sum   'Fe2 B2 O6'
_cell_volume   94.99246400
_cell_formula_units_Z   2
loop_
 _symmetry_equiv_pos_site_id
 _symmetry_equiv_pos_as_xyz
  1  'x, y, z'
loop_
 _atom_site_type_symbol
 _atom_site_label
 _atom_site_symmetry_multiplicity
 _atom_site_fract_x
 _atom_site_fract_y
 _atom_site_fract_z
 _atom_site_occupancy
  Fe  Fe0  1  0.49999999  0.50000004  0.49999997  1.0
  Fe  Fe1  1  0.00000003  0.99999997  0.00000001  1.0
  B  B2  1  0.75000008  0.74999995  0.74999997  1.0
  B  B3  1  0.24999992  0.25000004  0.25000003  1.0
  O  O4  1  0.04629384  0.45370619  0.74999997  1.0
  O  O5  1  0.45370626  0.74999997  0.04629373  1.0
  O  O6  1  0.24999995  0.95370628  0.54629372  1.0
  O  O7  1  0.95370618  0.54629380  0.25000001  1.0
  O  O8  1  0.54629372  0.25000004  0.95370630  1.0
  O  O9  1  0.75000004  0.04629372  0.45370628  1.0
