# generated using pymatgen
data_FeSbO4
_symmetry_space_group_name_H-M   'P 1'
_cell_length_a   4.74116698
_cell_length_b   4.74116766
_cell_length_c   3.13460218
_cell_angle_alpha   89.99999781
_cell_angle_beta   90.00000044
_cell_angle_gamma   92.19023256
_symmetry_Int_Tables_number   1
_chemical_formula_structural   FeSbO4
_chemical_formula_sum   'Fe1 Sb1 O4'
_cell_volume   70.41020426
_cell_formula_units_Z   1
loop_
 _symmetry_equiv_pos_site_id
 _symmetry_equiv_pos_as_xyz
  1  'x, y, z'
loop_
 _atom_site_type_symbol
 _atom_site_label
 _atom_site_symmetry_multiplicity
 _atom_site_fract_x
 _atom_site_fract_y
 _atom_site_fract_z
 _atom_site_occupancy
  Fe  Fe0  1  0.50000000  0.49999999  0.50000001  1.0
  Sb  Sb1  1  0.99999999  0.00000000  0.00000000  1.0
  O  O2  1  0.30382547  0.30382550  0.00000002  1.0
  O  O3  1  0.19264036  0.80735968  0.49999999  1.0
  O  O4  1  0.80735965  0.19264033  0.50000002  1.0
  O  O5  1  0.69617453  0.69617449  0.99999996  1.0
