# generated using pymatgen
data_FeSbN2
_symmetry_space_group_name_H-M   'P 1'
_cell_length_a   3.04190896
_cell_length_b   3.04190633
_cell_length_c   11.59201623
_cell_angle_alpha   89.99972072
_cell_angle_beta   89.99990107
_cell_angle_gamma   119.99998301
_symmetry_Int_Tables_number   1
_chemical_formula_structural   FeSbN2
_chemical_formula_sum   'Fe2 Sb2 N4'
_cell_volume   92.89273189
_cell_formula_units_Z   2
loop_
 _symmetry_equiv_pos_site_id
 _symmetry_equiv_pos_as_xyz
  1  'x, y, z'
loop_
 _atom_site_type_symbol
 _atom_site_label
 _atom_site_symmetry_multiplicity
 _atom_site_fract_x
 _atom_site_fract_y
 _atom_site_fract_z
 _atom_site_occupancy
  Fe  Fe0  1  0.99999997  0.00000003  0.99999823  1.0
  Fe  Fe1  1  0.99999997  0.99999996  0.49999995  1.0
  Sb  Sb2  1  0.00000048  0.00000006  0.74999740  1.0
  Sb  Sb3  1  0.99999965  0.99999995  0.25000377  1.0
  N  N4  1  0.66666667  0.33333333  0.58247218  1.0
  N  N5  1  0.33333333  0.66666667  0.08247226  1.0
  N  N6  1  0.66666667  0.33333333  0.91752739  1.0
  N  N7  1  0.33333333  0.66666667  0.41752882  1.0
