# generated using pymatgen
data_FeSiN2
_symmetry_space_group_name_H-M   'P 1'
_cell_length_a   2.80540246
_cell_length_b   2.80540258
_cell_length_c   5.37099110
_cell_angle_alpha   74.89108889
_cell_angle_beta   74.89103505
_cell_angle_gamma   59.99991144
_symmetry_Int_Tables_number   1
_chemical_formula_structural   FeSiN2
_chemical_formula_sum   'Fe1 Si1 N2'
_cell_volume   34.91044408
_cell_formula_units_Z   1
loop_
 _symmetry_equiv_pos_site_id
 _symmetry_equiv_pos_as_xyz
  1  'x, y, z'
loop_
 _atom_site_type_symbol
 _atom_site_label
 _atom_site_symmetry_multiplicity
 _atom_site_fract_x
 _atom_site_fract_y
 _atom_site_fract_z
 _atom_site_occupancy
  Fe  Fe0  1  0.00000002  0.99999993  0.00000001  1.0
  Si  Si1  1  0.49999998  0.50000002  0.50000000  1.0
  N  N2  1  0.76657231  0.76657337  0.70055554  1.0
  N  N3  1  0.23342768  0.23342668  0.29944444  1.0
