# generated using pymatgen
data_GaCoO3
_symmetry_space_group_name_H-M   'P 1'
_cell_length_a   3.22751504
_cell_length_b   3.22812010
_cell_length_c   12.03357117
_cell_angle_alpha   90.03275183
_cell_angle_beta   89.94872471
_cell_angle_gamma   119.93109927
_symmetry_Int_Tables_number   1
_chemical_formula_structural   GaCoO3
_chemical_formula_sum   'Ga2 Co2 O6'
_cell_volume   108.65358251
_cell_formula_units_Z   2
loop_
 _symmetry_equiv_pos_site_id
 _symmetry_equiv_pos_as_xyz
  1  'x, y, z'
loop_
 _atom_site_type_symbol
 _atom_site_label
 _atom_site_symmetry_multiplicity
 _atom_site_fract_x
 _atom_site_fract_y
 _atom_site_fract_z
 _atom_site_occupancy
  Ga  Ga0  1  0.33286778  0.66721001  0.25001430  1.0
  Ga  Ga1  1  0.66713226  0.33279004  0.74998578  1.0
  Co  Co2  1  0.00000004  0.99999962  0.99999998  1.0
  Co  Co3  1  0.99999996  0.00000017  0.50000005  1.0
  O  O4  1  0.33326686  0.66718270  0.07994026  1.0
  O  O5  1  0.99935740  0.00087403  0.25000834  1.0
  O  O6  1  0.33234324  0.66712865  0.42007186  1.0
  O  O7  1  0.00064262  0.99912602  0.74999156  1.0
  O  O8  1  0.66765683  0.33287157  0.57992817  1.0
  O  O9  1  0.66666667  0.33281697  0.92005971  1.0
