# generated using pymatgen
data_GaOF
_symmetry_space_group_name_H-M   'P 1'
_cell_length_a   2.86870053
_cell_length_b   4.05567976
_cell_length_c   3.91427318
_cell_angle_alpha   89.99999997
_cell_angle_beta   89.99392266
_cell_angle_gamma   134.98199146
_symmetry_Int_Tables_number   1
_chemical_formula_structural   GaOF
_chemical_formula_sum   'Ga1 O1 F1'
_cell_volume   32.21227944
_cell_formula_units_Z   1
loop_
 _symmetry_equiv_pos_site_id
 _symmetry_equiv_pos_as_xyz
  1  'x, y, z'
loop_
 _atom_site_type_symbol
 _atom_site_label
 _atom_site_symmetry_multiplicity
 _atom_site_fract_x
 _atom_site_fract_y
 _atom_site_fract_z
 _atom_site_occupancy
  Ga  Ga0  1  0.99997147  0.49998532  0.00014281  1.0
  O  O1  1  0.00001644  0.00000814  0.00008699  1.0
  F  F2  1  0.00001109  0.50000554  0.50013420  1.0
