# generated using pymatgen
data_GaPO4
_symmetry_space_group_name_H-M   'P 1'
_cell_length_a   4.44405760
_cell_length_b   4.44405787
_cell_length_c   2.78136760
_cell_angle_alpha   89.99998839
_cell_angle_beta   89.99999624
_cell_angle_gamma   94.86468119
_symmetry_Int_Tables_number   1
_chemical_formula_structural   GaPO4
_chemical_formula_sum   'Ga1 P1 O4'
_cell_volume   54.73315952
_cell_formula_units_Z   1
loop_
 _symmetry_equiv_pos_site_id
 _symmetry_equiv_pos_as_xyz
  1  'x, y, z'
loop_
 _atom_site_type_symbol
 _atom_site_label
 _atom_site_symmetry_multiplicity
 _atom_site_fract_x
 _atom_site_fract_y
 _atom_site_fract_z
 _atom_site_occupancy
  Ga  Ga0  1  0.00000001  0.00000002  0.00000003  1.0
  P  P1  1  0.50000000  0.50000001  0.49999997  1.0
  O  O2  1  0.21857919  0.21857920  0.49999982  1.0
  O  O3  1  0.32587962  0.67412050  0.00000001  1.0
  O  O4  1  0.78142080  0.78142076  0.50000018  1.0
  O  O5  1  0.67412038  0.32587952  0.99999998  1.0
