# generated using pymatgen
data_GaSbO4
_symmetry_space_group_name_H-M   'P 1'
_cell_length_a   3.11747776
_cell_length_b   4.70031233
_cell_length_c   4.70031251
_cell_angle_alpha   92.52967869
_cell_angle_beta   89.99998838
_cell_angle_gamma   90.00000179
_symmetry_Int_Tables_number   1
_chemical_formula_structural   GaSbO4
_chemical_formula_sum   'Ga1 Sb1 O4'
_cell_volume   68.80712085
_cell_formula_units_Z   1
loop_
 _symmetry_equiv_pos_site_id
 _symmetry_equiv_pos_as_xyz
  1  'x, y, z'
loop_
 _atom_site_type_symbol
 _atom_site_label
 _atom_site_symmetry_multiplicity
 _atom_site_fract_x
 _atom_site_fract_y
 _atom_site_fract_z
 _atom_site_occupancy
  Ga  Ga0  1  0.50000001  0.49999998  0.50000003  1.0
  Sb  Sb1  1  0.99999999  0.99999999  0.99999999  1.0
  O  O2  1  0.00000005  0.69252721  0.69252718  1.0
  O  O3  1  0.50000007  0.19353490  0.80646515  1.0
  O  O4  1  0.49999994  0.80646514  0.19353481  1.0
  O  O5  1  0.99999994  0.30747278  0.30747284  1.0
