# generated using pymatgen
data_GdAlO3
_symmetry_space_group_name_H-M   'P 1'
_cell_length_a   5.31163948
_cell_length_b   5.31163959
_cell_length_c   5.31163619
_cell_angle_alpha   60.76419643
_cell_angle_beta   60.76417772
_cell_angle_gamma   60.76415441
_symmetry_Int_Tables_number   1
_chemical_formula_structural   GdAlO3
_chemical_formula_sum   'Gd2 Al2 O6'
_cell_volume   107.79386520
_cell_formula_units_Z   2
loop_
 _symmetry_equiv_pos_site_id
 _symmetry_equiv_pos_as_xyz
  1  'x, y, z'
loop_
 _atom_site_type_symbol
 _atom_site_label
 _atom_site_symmetry_multiplicity
 _atom_site_fract_x
 _atom_site_fract_y
 _atom_site_fract_z
 _atom_site_occupancy
  Gd  Gd0  1  0.75000027  0.75000012  0.74999980  1.0
  Gd  Gd1  1  0.24999977  0.25000018  0.24999973  1.0
  Al  Al2  1  0.49999995  0.50000000  0.49999998  1.0
  Al  Al3  1  0.00000003  0.00000000  0.00000001  1.0
  O  O4  1  0.31797447  0.74999973  0.18202569  1.0
  O  O5  1  0.75000018  0.18202546  0.31797441  1.0
  O  O6  1  0.18202566  0.31797440  0.75000027  1.0
  O  O7  1  0.68202527  0.25000016  0.81797482  1.0
  O  O8  1  0.81797460  0.68202537  0.24999984  1.0
  O  O9  1  0.24999979  0.81797458  0.68202544  1.0
