# generated using pymatgen
data_GdAlO3
_symmetry_space_group_name_H-M   'P 1'
_cell_length_a   3.76363903
_cell_length_b   3.76363815
_cell_length_c   3.76363845
_cell_angle_alpha   89.99999026
_cell_angle_beta   90.00000853
_cell_angle_gamma   89.99999970
_symmetry_Int_Tables_number   1
_chemical_formula_structural   GdAlO3
_chemical_formula_sum   'Gd1 Al1 O3'
_cell_volume   53.31184619
_cell_formula_units_Z   1
loop_
 _symmetry_equiv_pos_site_id
 _symmetry_equiv_pos_as_xyz
  1  'x, y, z'
loop_
 _atom_site_type_symbol
 _atom_site_label
 _atom_site_symmetry_multiplicity
 _atom_site_fract_x
 _atom_site_fract_y
 _atom_site_fract_z
 _atom_site_occupancy
  Gd  Gd0  1  0.50000005  0.49999997  0.49999988  1.0
  Al  Al1  1  0.00000003  0.00000002  0.00000000  1.0
  O  O2  1  0.99999994  0.50000000  0.00000012  1.0
  O  O3  1  0.99999998  0.99999998  0.50000001  1.0
  O  O4  1  0.50000000  0.00000003  0.99999999  1.0
