# generated using pymatgen
data_GePN3
_symmetry_space_group_name_H-M   'P 1'
_cell_length_a   4.84538732
_cell_length_b   4.84538675
_cell_length_c   2.86611839
_cell_angle_alpha   89.99999970
_cell_angle_beta   89.99999988
_cell_angle_gamma   113.84718271
_symmetry_Int_Tables_number   1
_chemical_formula_structural   GePN3
_chemical_formula_sum   'Ge1 P1 N3'
_cell_volume   61.54533055
_cell_formula_units_Z   1
loop_
 _symmetry_equiv_pos_site_id
 _symmetry_equiv_pos_as_xyz
  1  'x, y, z'
loop_
 _atom_site_type_symbol
 _atom_site_label
 _atom_site_symmetry_multiplicity
 _atom_site_fract_x
 _atom_site_fract_y
 _atom_site_fract_z
 _atom_site_occupancy
  Ge  Ge0  1  0.42995559  0.57004438  0.00000000  1.0
  P  P1  1  0.07344344  0.92655669  0.50000000  1.0
  N  N2  1  0.70590553  0.76891849  0.50000000  1.0
  N  N3  1  0.18766394  0.81233605  0.00000000  1.0
  N  N4  1  0.23108151  0.29409439  0.50000000  1.0
