# generated using pymatgen
data_GeSeO4
_symmetry_space_group_name_H-M   'P 1'
_cell_length_a   4.89623319
_cell_length_b   4.89619792
_cell_length_c   6.39193281
_cell_angle_alpha   112.50840037
_cell_angle_beta   112.53235194
_cell_angle_gamma   89.99970627
_symmetry_Int_Tables_number   1
_chemical_formula_structural   GeSeO4
_chemical_formula_sum   'Ge2 Se2 O8'
_cell_volume   128.80764664
_cell_formula_units_Z   2
loop_
 _symmetry_equiv_pos_site_id
 _symmetry_equiv_pos_as_xyz
  1  'x, y, z'
loop_
 _atom_site_type_symbol
 _atom_site_label
 _atom_site_symmetry_multiplicity
 _atom_site_fract_x
 _atom_site_fract_y
 _atom_site_fract_z
 _atom_site_occupancy
  Ge  Ge0  1  0.12487390  0.37497851  0.24999429  1.0
  Ge  Ge1  1  0.87512618  0.62502157  0.75000586  1.0
  Se  Se2  1  0.62475843  0.87481754  0.25000673  1.0
  Se  Se3  1  0.37524113  0.12518202  0.74999237  1.0
  O  O4  1  0.30828881  0.47552987  0.08334728  1.0
  O  O5  1  0.60780544  0.80822801  0.58316119  1.0
  O  O6  1  0.97551763  0.27509617  0.58326083  1.0
  O  O7  1  0.77497418  0.10771854  0.08307352  1.0
  O  O8  1  0.22502603  0.89228147  0.91692665  1.0
  O  O9  1  0.02448250  0.72490398  0.41673936  1.0
  O  O10  1  0.39219462  0.19177204  0.41683901  1.0
  O  O11  1  0.69171116  0.52447029  0.91665290  1.0
