# generated using pymatgen
data_HgCN2
_symmetry_space_group_name_H-M   'P 1'
_cell_length_a   4.82782066
_cell_length_b   4.82782066
_cell_length_c   4.82787122
_cell_angle_alpha   121.61516211
_cell_angle_beta   121.61516350
_cell_angle_gamma   87.22367731
_symmetry_Int_Tables_number   1
_chemical_formula_structural   HgCN2
_chemical_formula_sum   'Hg2 C2 N4'
_cell_volume   77.52793879
_cell_formula_units_Z   2
loop_
 _symmetry_equiv_pos_site_id
 _symmetry_equiv_pos_as_xyz
  1  'x, y, z'
loop_
 _atom_site_type_symbol
 _atom_site_label
 _atom_site_symmetry_multiplicity
 _atom_site_fract_x
 _atom_site_fract_y
 _atom_site_fract_z
 _atom_site_occupancy
  Hg  Hg0  1  0.75000048  0.25000043  0.49999963  1.0
  Hg  Hg1  1  0.00000044  0.00000048  0.99999964  1.0
  C  C2  1  0.49999999  0.50000027  0.00000032  1.0
  C  C3  1  0.25000025  0.74999997  0.50000031  1.0
  N  N4  1  0.48874443  0.62499864  0.36374419  1.0
  N  N5  1  0.87500052  0.51125524  0.13625585  1.0
  N  N6  1  0.26125525  0.12500052  0.63625586  1.0
  N  N7  1  0.37499864  0.73874443  0.86374419  1.0
