# generated using pymatgen
data_HoSbO4
_symmetry_space_group_name_H-M   'P 1'
_cell_length_a   5.01688420
_cell_length_b   5.01688365
_cell_length_c   3.29394197
_cell_angle_alpha   90.00000103
_cell_angle_beta   90.00000373
_cell_angle_gamma   92.62255440
_symmetry_Int_Tables_number   1
_chemical_formula_structural   HoSbO4
_chemical_formula_sum   'Ho1 Sb1 O4'
_cell_volume   82.81880250
_cell_formula_units_Z   1
loop_
 _symmetry_equiv_pos_site_id
 _symmetry_equiv_pos_as_xyz
  1  'x, y, z'
loop_
 _atom_site_type_symbol
 _atom_site_label
 _atom_site_symmetry_multiplicity
 _atom_site_fract_x
 _atom_site_fract_y
 _atom_site_fract_z
 _atom_site_occupancy
  Ho  Ho0  1  0.49999997  0.49999998  0.49999995  1.0
  Sb  Sb1  1  0.99999999  0.00000000  0.00000000  1.0
  O  O2  1  0.28470053  0.28470057  0.99999998  1.0
  O  O3  1  0.18028295  0.81971711  0.50000002  1.0
  O  O4  1  0.81971707  0.18028293  0.49999999  1.0
  O  O5  1  0.71529948  0.71529941  0.00000006  1.0
