# generated using pymatgen
data_In2Ge2O7
_symmetry_space_group_name_H-M   'P 1'
_cell_length_a   6.75065510
_cell_length_b   6.75065510
_cell_length_c   6.75065510
_cell_angle_alpha   60.00000000
_cell_angle_beta   60.00000000
_cell_angle_gamma   60.00000000
_symmetry_Int_Tables_number   1
_chemical_formula_structural   In2Ge2O7
_chemical_formula_sum   'In4 Ge4 O14'
_cell_volume   217.53180415
_cell_formula_units_Z   2
loop_
 _symmetry_equiv_pos_site_id
 _symmetry_equiv_pos_as_xyz
  1  'x, y, z'
loop_
 _atom_type_symbol
 _atom_type_oxidation_number
  In3+  3.0
  Ge4+  4.0
  O2-  -2.0
loop_
 _atom_site_type_symbol
 _atom_site_label
 _atom_site_symmetry_multiplicity
 _atom_site_fract_x
 _atom_site_fract_y
 _atom_site_fract_z
 _atom_site_occupancy
  In3+  In0  1  0.12500000  0.12500000  0.12500000  1.0
  In3+  In1  1  0.62500000  0.12500000  0.12500000  1.0
  In3+  In2  1  0.12500000  0.12500000  0.62500000  1.0
  In3+  In3  1  0.12500000  0.62500000  0.12500000  1.0
  Ge4+  Ge4  1  0.62500000  0.62500000  0.62500000  1.0
  Ge4+  Ge5  1  0.12500000  0.62500000  0.62500000  1.0
  Ge4+  Ge6  1  0.62500000  0.62500000  0.12500000  1.0
  Ge4+  Ge7  1  0.62500000  0.12500000  0.62500000  1.0
  O2-  O8  1  0.69607500  0.69607500  0.30392500  1.0
  O2-  O9  1  0.94607500  0.94607500  0.55392500  1.0
  O2-  O10  1  0.30392500  0.69607500  0.30392500  1.0
  O2-  O11  1  0.30392500  0.69607500  0.69607500  1.0
  O2-  O12  1  0.69607500  0.30392500  0.30392500  1.0
  O2-  O13  1  0.69607500  0.30392500  0.69607500  1.0
  O2-  O14  1  0.94607500  0.55392500  0.94607500  1.0
  O2-  O15  1  0.55392500  0.94607500  0.55392500  1.0
  O2-  O16  1  0.00000000  0.00000000  0.00000000  1.0
  O2-  O17  1  0.25000000  0.25000000  0.25000000  1.0
  O2-  O18  1  0.30392500  0.30392500  0.69607500  1.0
  O2-  O19  1  0.55392500  0.94607500  0.94607500  1.0
  O2-  O20  1  0.94607500  0.55392500  0.55392500  1.0
  O2-  O21  1  0.55392500  0.55392500  0.94607500  1.0
