# generated using pymatgen
data_In2Si2S7
_symmetry_space_group_name_H-M   'P 1'
_cell_length_a   6.75065510
_cell_length_b   6.75065510
_cell_length_c   6.75065510
_cell_angle_alpha   60.00000000
_cell_angle_beta   60.00000000
_cell_angle_gamma   60.00000000
_symmetry_Int_Tables_number   1
_chemical_formula_structural   In2Si2S7
_chemical_formula_sum   'In4 Si4 S14'
_cell_volume   217.53180415
_cell_formula_units_Z   2
loop_
 _symmetry_equiv_pos_site_id
 _symmetry_equiv_pos_as_xyz
  1  'x, y, z'
loop_
 _atom_type_symbol
 _atom_type_oxidation_number
  In3+  3.0
  Si4+  4.0
  S2-  -2.0
loop_
 _atom_site_type_symbol
 _atom_site_label
 _atom_site_symmetry_multiplicity
 _atom_site_fract_x
 _atom_site_fract_y
 _atom_site_fract_z
 _atom_site_occupancy
  In3+  In0  1  0.12500000  0.12500000  0.12500000  1.0
  In3+  In1  1  0.62500000  0.12500000  0.12500000  1.0
  In3+  In2  1  0.12500000  0.12500000  0.62500000  1.0
  In3+  In3  1  0.12500000  0.62500000  0.12500000  1.0
  Si4+  Si4  1  0.62500000  0.62500000  0.62500000  1.0
  Si4+  Si5  1  0.12500000  0.62500000  0.62500000  1.0
  Si4+  Si6  1  0.62500000  0.62500000  0.12500000  1.0
  Si4+  Si7  1  0.62500000  0.12500000  0.62500000  1.0
  S2-  S8  1  0.69607500  0.69607500  0.30392500  1.0
  S2-  S9  1  0.94607500  0.94607500  0.55392500  1.0
  S2-  S10  1  0.30392500  0.69607500  0.30392500  1.0
  S2-  S11  1  0.30392500  0.69607500  0.69607500  1.0
  S2-  S12  1  0.69607500  0.30392500  0.30392500  1.0
  S2-  S13  1  0.69607500  0.30392500  0.69607500  1.0
  S2-  S14  1  0.94607500  0.55392500  0.94607500  1.0
  S2-  S15  1  0.55392500  0.94607500  0.55392500  1.0
  S2-  S16  1  0.00000000  0.00000000  0.00000000  1.0
  S2-  S17  1  0.25000000  0.25000000  0.25000000  1.0
  S2-  S18  1  0.30392500  0.30392500  0.69607500  1.0
  S2-  S19  1  0.55392500  0.94607500  0.94607500  1.0
  S2-  S20  1  0.94607500  0.55392500  0.55392500  1.0
  S2-  S21  1  0.55392500  0.55392500  0.94607500  1.0
