# generated using pymatgen
data_InGaO3
_symmetry_space_group_name_H-M   'P 1'
_cell_length_a   3.87894436
_cell_length_b   3.87894227
_cell_length_c   3.87894630
_cell_angle_alpha   90.00002836
_cell_angle_beta   90.00001182
_cell_angle_gamma   89.99999143
_symmetry_Int_Tables_number   1
_chemical_formula_structural   InGaO3
_chemical_formula_sum   'In1 Ga1 O3'
_cell_volume   58.36340663
_cell_formula_units_Z   1
loop_
 _symmetry_equiv_pos_site_id
 _symmetry_equiv_pos_as_xyz
  1  'x, y, z'
loop_
 _atom_site_type_symbol
 _atom_site_label
 _atom_site_symmetry_multiplicity
 _atom_site_fract_x
 _atom_site_fract_y
 _atom_site_fract_z
 _atom_site_occupancy
  In  In0  1  0.49999996  0.50000006  0.50000004  1.0
  Ga  Ga1  1  0.99999995  0.00000001  0.99999995  1.0
  O  O2  1  0.99999986  0.00000007  0.50000017  1.0
  O  O3  1  0.00000006  0.50000001  0.99999997  1.0
  O  O4  1  0.50000016  0.99999985  0.99999987  1.0
