# generated using pymatgen
data_InGaN2
_symmetry_space_group_name_H-M   'P 1'
_cell_length_a   3.40258013
_cell_length_b   3.40258024
_cell_length_c   4.84526193
_cell_angle_alpha   89.99999833
_cell_angle_beta   89.99999931
_cell_angle_gamma   89.99999697
_symmetry_Int_Tables_number   1
_chemical_formula_structural   InGaN2
_chemical_formula_sum   'In1 Ga1 N2'
_cell_volume   56.09627154
_cell_formula_units_Z   1
loop_
 _symmetry_equiv_pos_site_id
 _symmetry_equiv_pos_as_xyz
  1  'x, y, z'
loop_
 _atom_site_type_symbol
 _atom_site_label
 _atom_site_symmetry_multiplicity
 _atom_site_fract_x
 _atom_site_fract_y
 _atom_site_fract_z
 _atom_site_occupancy
  In  In0  1  0.49999999  0.50000001  0.50000001  1.0
  Ga  Ga1  1  0.00000000  0.00000002  0.00000002  1.0
  N  N2  1  0.00000001  0.49999998  0.21999078  1.0
  N  N3  1  0.50000000  0.99999999  0.78000919  1.0
