# generated using pymatgen
data_InSbO4
_symmetry_space_group_name_H-M   'P 1'
_cell_length_a   4.91636486
_cell_length_b   4.91636475
_cell_length_c   3.24743471
_cell_angle_alpha   89.99999722
_cell_angle_beta   90.00000126
_cell_angle_gamma   92.84752919
_symmetry_Int_Tables_number   1
_chemical_formula_structural   InSbO4
_chemical_formula_sum   'In1 Sb1 O4'
_cell_volume   78.39566762
_cell_formula_units_Z   1
loop_
 _symmetry_equiv_pos_site_id
 _symmetry_equiv_pos_as_xyz
  1  'x, y, z'
loop_
 _atom_site_type_symbol
 _atom_site_label
 _atom_site_symmetry_multiplicity
 _atom_site_fract_x
 _atom_site_fract_y
 _atom_site_fract_z
 _atom_site_occupancy
  In  In0  1  0.50000001  0.49999999  0.49999999  1.0
  Sb  Sb1  1  0.00000000  0.99999999  0.00000001  1.0
  O  O2  1  0.29278620  0.29278616  0.00000003  1.0
  O  O3  1  0.18220080  0.81779918  0.50000004  1.0
  O  O4  1  0.81779922  0.18220080  0.49999998  1.0
  O  O5  1  0.70721377  0.70721388  0.99999995  1.0
