# generated using pymatgen
data_LaAlO3
_symmetry_space_group_name_H-M   'P 1'
_cell_length_a   5.43106826
_cell_length_b   5.45176209
_cell_length_c   7.67469817
_cell_angle_alpha   89.99999957
_cell_angle_beta   90.00000482
_cell_angle_gamma   89.99999547
_symmetry_Int_Tables_number   1
_chemical_formula_structural   LaAlO3
_chemical_formula_sum   'La4 Al4 O12'
_cell_volume   227.23930962
_cell_formula_units_Z   4
loop_
 _symmetry_equiv_pos_site_id
 _symmetry_equiv_pos_as_xyz
  1  'x, y, z'
loop_
 _atom_site_type_symbol
 _atom_site_label
 _atom_site_symmetry_multiplicity
 _atom_site_fract_x
 _atom_site_fract_y
 _atom_site_fract_z
 _atom_site_occupancy
  La  La0  1  0.00478073  0.99829663  0.25000000  1.0
  La  La1  1  0.50478095  0.50170349  0.24999997  1.0
  La  La2  1  0.49521914  0.49829667  0.74999995  1.0
  La  La3  1  0.99521933  0.00170352  0.74999998  1.0
  Al  Al4  1  0.50000000  0.00000000  0.49999999  1.0
  Al  Al5  1  0.99999998  0.49999997  0.00000002  1.0
  Al  Al6  1  0.00000002  0.49999999  0.49999999  1.0
  Al  Al7  1  0.50000000  0.00000000  0.00000002  1.0
  O  O8  1  0.74252854  0.25730459  0.52397989  1.0
  O  O9  1  0.24252878  0.24269558  0.97601993  1.0
  O  O10  1  0.75747137  0.75730440  0.47601977  1.0
  O  O11  1  0.25747140  0.74269551  0.02397999  1.0
  O  O12  1  0.25747143  0.74269541  0.47602006  1.0
  O  O13  1  0.75747112  0.75730436  0.02398009  1.0
  O  O14  1  0.24252859  0.24269552  0.52398024  1.0
  O  O15  1  0.74252857  0.25730452  0.97602010  1.0
  O  O16  1  0.50156198  0.95362806  0.75000000  1.0
  O  O17  1  0.00156176  0.54637202  0.74999995  1.0
  O  O18  1  0.99843826  0.45362783  0.25000007  1.0
  O  O19  1  0.49843806  0.04637194  0.24999997  1.0
