# generated using pymatgen
data_LaCrO3
_symmetry_space_group_name_H-M   'P 1'
_cell_length_a   3.95196298
_cell_length_b   3.95196422
_cell_length_c   3.95196727
_cell_angle_alpha   90.00001203
_cell_angle_beta   90.00000261
_cell_angle_gamma   89.99998550
_symmetry_Int_Tables_number   1
_chemical_formula_structural   LaCrO3
_chemical_formula_sum   'La1 Cr1 O3'
_cell_volume   61.72188922
_cell_formula_units_Z   1
loop_
 _symmetry_equiv_pos_site_id
 _symmetry_equiv_pos_as_xyz
  1  'x, y, z'
loop_
 _atom_site_type_symbol
 _atom_site_label
 _atom_site_symmetry_multiplicity
 _atom_site_fract_x
 _atom_site_fract_y
 _atom_site_fract_z
 _atom_site_occupancy
  La  La0  1  0.99999995  0.00000007  0.00000001  1.0
  Cr  Cr1  1  0.49999999  0.49999999  0.50000002  1.0
  O  O2  1  0.00000001  0.49999998  0.49999999  1.0
  O  O3  1  0.50000002  0.99999998  0.49999999  1.0
  O  O4  1  0.50000003  0.49999999  0.99999999  1.0
