# generated using pymatgen
data_LaGaO3
_symmetry_space_group_name_H-M   'P 1'
_cell_length_a   3.94383434
_cell_length_b   3.94383830
_cell_length_c   3.94383778
_cell_angle_alpha   89.99996194
_cell_angle_beta   89.99990441
_cell_angle_gamma   90.00002760
_symmetry_Int_Tables_number   1
_chemical_formula_structural   LaGaO3
_chemical_formula_sum   'La1 Ga1 O3'
_cell_volume   61.34184122
_cell_formula_units_Z   1
loop_
 _symmetry_equiv_pos_site_id
 _symmetry_equiv_pos_as_xyz
  1  'x, y, z'
loop_
 _atom_site_type_symbol
 _atom_site_label
 _atom_site_symmetry_multiplicity
 _atom_site_fract_x
 _atom_site_fract_y
 _atom_site_fract_z
 _atom_site_occupancy
  La  La0  1  0.00000001  0.99999897  0.00000039  1.0
  Ga  Ga1  1  0.50000006  0.50000014  0.49999985  1.0
  O  O2  1  0.49999983  0.50000056  0.99999981  1.0
  O  O3  1  0.50000008  0.00000024  0.50000000  1.0
  O  O4  1  0.00000002  0.50000009  0.49999995  1.0
