# generated using pymatgen
data_LaNbO4
_symmetry_space_group_name_H-M   'P 1'
_cell_length_a   3.70290328
_cell_length_b   3.70290230
_cell_length_c   5.61229154
_cell_angle_alpha   89.99993986
_cell_angle_beta   89.99994612
_cell_angle_gamma   89.99999195
_symmetry_Int_Tables_number   1
_chemical_formula_structural   LaNbO4
_chemical_formula_sum   'La1 Nb1 O4'
_cell_volume   76.95287412
_cell_formula_units_Z   1
loop_
 _symmetry_equiv_pos_site_id
 _symmetry_equiv_pos_as_xyz
  1  'x, y, z'
loop_
 _atom_site_type_symbol
 _atom_site_label
 _atom_site_symmetry_multiplicity
 _atom_site_fract_x
 _atom_site_fract_y
 _atom_site_fract_z
 _atom_site_occupancy
  La  La0  1  0.49999992  0.50000004  0.49999995  1.0
  Nb  Nb1  1  0.99999943  0.99999976  0.00000000  1.0
  O  O2  1  0.00000024  0.50000024  0.21467305  1.0
  O  O3  1  0.50000035  0.00000019  0.21467288  1.0
  O  O4  1  0.00000000  0.49999989  0.78532703  1.0
  O  O5  1  0.50000006  0.99999988  0.78532709  1.0
