# generated using pymatgen
data_LaScO3
_symmetry_space_group_name_H-M   'P 1'
_cell_length_a   4.10088133
_cell_length_b   4.10088412
_cell_length_c   4.10088328
_cell_angle_alpha   89.99995725
_cell_angle_beta   90.00000754
_cell_angle_gamma   90.00004331
_symmetry_Int_Tables_number   1
_chemical_formula_structural   LaScO3
_chemical_formula_sum   'La1 Sc1 O3'
_cell_volume   68.96553474
_cell_formula_units_Z   1
loop_
 _symmetry_equiv_pos_site_id
 _symmetry_equiv_pos_as_xyz
  1  'x, y, z'
loop_
 _atom_site_type_symbol
 _atom_site_label
 _atom_site_symmetry_multiplicity
 _atom_site_fract_x
 _atom_site_fract_y
 _atom_site_fract_z
 _atom_site_occupancy
  La  La0  1  0.00000018  0.00000012  0.99999986  1.0
  Sc  Sc1  1  0.49999958  0.49999969  0.49999977  1.0
  O  O2  1  0.00000040  0.50000002  0.50000020  1.0
  O  O3  1  0.49999997  0.00000017  0.50000011  1.0
  O  O4  1  0.49999986  0.50000000  0.00000007  1.0
