# generated using pymatgen
data_LaTaO4
_symmetry_space_group_name_H-M   'P 1'
_cell_length_a   3.67803625
_cell_length_b   3.67803544
_cell_length_c   5.62038498
_cell_angle_alpha   89.99995033
_cell_angle_beta   89.99996824
_cell_angle_gamma   89.99999875
_symmetry_Int_Tables_number   1
_chemical_formula_structural   LaTaO4
_chemical_formula_sum   'La1 Ta1 O4'
_cell_volume   76.03227393
_cell_formula_units_Z   1
loop_
 _symmetry_equiv_pos_site_id
 _symmetry_equiv_pos_as_xyz
  1  'x, y, z'
loop_
 _atom_site_type_symbol
 _atom_site_label
 _atom_site_symmetry_multiplicity
 _atom_site_fract_x
 _atom_site_fract_y
 _atom_site_fract_z
 _atom_site_occupancy
  La  La0  1  0.50000006  0.49999991  0.50000001  1.0
  Ta  Ta1  1  0.99999894  0.00000073  0.00000001  1.0
  O  O2  1  0.00000028  0.49999990  0.21206010  1.0
  O  O3  1  0.50000048  0.00000023  0.21206000  1.0
  O  O4  1  0.99999989  0.49999958  0.78793992  1.0
  O  O5  1  0.50000035  0.99999965  0.78793995  1.0
