# generated using pymatgen
data_LiReO3
_symmetry_space_group_name_H-M   'P 1'
_cell_length_a   3.89282426
_cell_length_b   3.89282341
_cell_length_c   3.89282436
_cell_angle_alpha   89.99997086
_cell_angle_beta   90.00001531
_cell_angle_gamma   90.00000442
_symmetry_Int_Tables_number   1
_chemical_formula_structural   LiReO3
_chemical_formula_sum   'Li1 Re1 O3'
_cell_volume   58.99216170
_cell_formula_units_Z   1
loop_
 _symmetry_equiv_pos_site_id
 _symmetry_equiv_pos_as_xyz
  1  'x, y, z'
loop_
 _atom_site_type_symbol
 _atom_site_label
 _atom_site_symmetry_multiplicity
 _atom_site_fract_x
 _atom_site_fract_y
 _atom_site_fract_z
 _atom_site_occupancy
  Li  Li0  1  0.99999999  0.00000002  0.99999999  1.0
  Re  Re1  1  0.49999998  0.50000000  0.50000000  1.0
  O  O2  1  0.50000002  0.50000001  0.00000002  1.0
  O  O3  1  0.50000003  0.00000002  0.49999994  1.0
  O  O4  1  0.99999998  0.49999995  0.50000005  1.0
