# generated using pymatgen
data_LuSbO4
_symmetry_space_group_name_H-M   'P 1'
_cell_length_a   4.95024715
_cell_length_b   4.95024765
_cell_length_c   3.26323363
_cell_angle_alpha   89.99999755
_cell_angle_beta   89.99999670
_cell_angle_gamma   92.64011579
_symmetry_Int_Tables_number   1
_chemical_formula_structural   LuSbO4
_chemical_formula_sum   'Lu1 Sb1 O4'
_cell_volume   79.88049659
_cell_formula_units_Z   1
loop_
 _symmetry_equiv_pos_site_id
 _symmetry_equiv_pos_as_xyz
  1  'x, y, z'
loop_
 _atom_site_type_symbol
 _atom_site_label
 _atom_site_symmetry_multiplicity
 _atom_site_fract_x
 _atom_site_fract_y
 _atom_site_fract_z
 _atom_site_occupancy
  Lu  Lu0  1  0.49999993  0.50000013  0.50000001  1.0
  Sb  Sb1  1  0.00000001  0.99999999  0.99999998  1.0
  O  O2  1  0.28910966  0.28910962  0.00000002  1.0
  O  O3  1  0.18295331  0.81704684  0.49999993  1.0
  O  O4  1  0.81704669  0.18295311  0.50000004  1.0
  O  O5  1  0.71089040  0.71089030  0.00000002  1.0
