# generated using pymatgen
data_LuZr4N5O2
_symmetry_space_group_name_H-M   'P 1'
_cell_length_a   5.52347654
_cell_length_b   5.52347654
_cell_length_c   9.25958089
_cell_angle_alpha   74.94477077
_cell_angle_beta   74.94477077
_cell_angle_gamma   32.80053170
_symmetry_Int_Tables_number   1
_chemical_formula_structural   LuZr4N5O2
_chemical_formula_sum   'Lu1 Zr4 N5 O2'
_cell_volume   147.31744447
_cell_formula_units_Z   1
loop_
 _symmetry_equiv_pos_site_id
 _symmetry_equiv_pos_as_xyz
  1  'x, y, z'
loop_
 _atom_type_symbol
 _atom_type_oxidation_number
  Lu3+  3.0
  Zr4+  4.0
  N3-  -3.0
  O2-  -2.0
loop_
 _atom_site_type_symbol
 _atom_site_label
 _atom_site_symmetry_multiplicity
 _atom_site_fract_x
 _atom_site_fract_y
 _atom_site_fract_z
 _atom_site_occupancy
  Lu3+  Lu4  1  0.00000000  0.00000000  0.00000000  1.0
  Zr4+  Zr0  1  0.88596900  0.88596900  0.42300600  1.0
  Zr4+  Zr1  1  0.29892700  0.29892700  0.80604900  1.0
  Zr4+  Zr2  1  0.70107300  0.70107300  0.19395100  1.0
  Zr4+  Zr3  1  0.11403100  0.11403100  0.57699400  1.0
  N3-  N5  1  0.50000000  0.50000000  0.50000000  1.0
  N3-  N6  1  0.34393500  0.34393500  0.05251900  1.0
  N3-  N7  1  0.26224200  0.26224200  0.35170800  1.0
  N3-  N8  1  0.73775800  0.73775800  0.64829200  1.0
  N3-  N9  1  0.65606500  0.65606500  0.94748100  1.0
  O2-  O10  1  0.95528100  0.95528100  0.78697000  1.0
  O2-  O11  1  0.04471900  0.04471900  0.21303000  1.0
