# generated using pymatgen
data_MgAl2O4
_symmetry_space_group_name_H-M   'P 1'
_cell_length_a   5.81694622
_cell_length_b   5.81694517
_cell_length_c   5.81694650
_cell_angle_alpha   59.99986799
_cell_angle_beta   59.99985617
_cell_angle_gamma   59.99988007
_symmetry_Int_Tables_number   1
_chemical_formula_structural   MgAl2O4
_chemical_formula_sum   'Mg2 Al4 O8'
_cell_volume   139.17742319
_cell_formula_units_Z   2
loop_
 _symmetry_equiv_pos_site_id
 _symmetry_equiv_pos_as_xyz
  1  'x, y, z'
loop_
 _atom_site_type_symbol
 _atom_site_label
 _atom_site_symmetry_multiplicity
 _atom_site_fract_x
 _atom_site_fract_y
 _atom_site_fract_z
 _atom_site_occupancy
  Mg  Mg0  1  0.12500016  0.12500029  0.12500032  1.0
  Mg  Mg1  1  0.87499983  0.87499972  0.87499969  1.0
  Al  Al2  1  0.50000000  0.00000000  0.50000000  1.0
  Al  Al3  1  0.00000000  0.50000000  0.50000000  1.0
  Al  Al4  1  0.50000000  0.50000000  0.00000000  1.0
  Al  Al5  1  0.50000000  0.50000000  0.50000000  1.0
  O  O6  1  0.73632857  0.73632873  0.73632878  1.0
  O  O7  1  0.26367083  0.26367128  0.70898671  1.0
  O  O8  1  0.26367140  0.70898668  0.26367128  1.0
  O  O9  1  0.70898662  0.26367134  0.26367135  1.0
  O  O10  1  0.73632860  0.29101331  0.73632872  1.0
  O  O11  1  0.29101337  0.73632866  0.73632864  1.0
  O  O12  1  0.26367143  0.26367127  0.26367122  1.0
  O  O13  1  0.73632918  0.73632871  0.29101329  1.0
