# generated using pymatgen
data_MgGeO3
_symmetry_space_group_name_H-M   'P 1'
_cell_length_a   2.86959278
_cell_length_b   4.98057319
_cell_length_c   7.06496465
_cell_angle_alpha   89.99999916
_cell_angle_beta   89.99999803
_cell_angle_gamma   106.74474238
_symmetry_Int_Tables_number   1
_chemical_formula_structural   MgGeO3
_chemical_formula_sum   'Mg2 Ge2 O6'
_cell_volume   96.69248714
_cell_formula_units_Z   2
loop_
 _symmetry_equiv_pos_site_id
 _symmetry_equiv_pos_as_xyz
  1  'x, y, z'
loop_
 _atom_site_type_symbol
 _atom_site_label
 _atom_site_symmetry_multiplicity
 _atom_site_fract_x
 _atom_site_fract_y
 _atom_site_fract_z
 _atom_site_occupancy
  Mg  Mg0  1  0.26142398  0.52295489  0.74999997  1.0
  Mg  Mg1  1  0.73857602  0.47704511  0.25000004  1.0
  Ge  Ge2  1  0.00000001  0.00000001  0.00000000  1.0
  Ge  Ge3  1  0.00000001  0.00000001  0.50000000  1.0
  O  O4  1  0.63161418  0.26320471  0.94111390  1.0
  O  O5  1  0.36838582  0.73679528  0.05888611  1.0
  O  O6  1  0.36838587  0.73679526  0.44111389  1.0
  O  O7  1  0.63161413  0.26320473  0.55888610  1.0
  O  O8  1  0.91653629  0.83311193  0.75000000  1.0
  O  O9  1  0.08346370  0.16688806  0.25000000  1.0
