# generated using pymatgen
data_MgGeO3
_symmetry_space_group_name_H-M   'P 1'
_cell_length_a   5.50868812
_cell_length_b   5.50868805
_cell_length_c   5.50868820
_cell_angle_alpha   54.50204835
_cell_angle_beta   54.50204643
_cell_angle_gamma   54.50204745
_symmetry_Int_Tables_number   1
_chemical_formula_structural   MgGeO3
_chemical_formula_sum   'Mg2 Ge2 O6'
_cell_volume   103.05256604
_cell_formula_units_Z   2
loop_
 _symmetry_equiv_pos_site_id
 _symmetry_equiv_pos_as_xyz
  1  'x, y, z'
loop_
 _atom_site_type_symbol
 _atom_site_label
 _atom_site_symmetry_multiplicity
 _atom_site_fract_x
 _atom_site_fract_y
 _atom_site_fract_z
 _atom_site_occupancy
  Mg  Mg0  1  0.35932912  0.35932912  0.35932913  1.0
  Mg  Mg1  1  0.64067099  0.64067100  0.64067099  1.0
  Ge  Ge2  1  0.15361557  0.15361556  0.15361557  1.0
  Ge  Ge3  1  0.84638398  0.84638398  0.84638398  1.0
  O  O4  1  0.78080757  0.04600011  0.44039184  1.0
  O  O5  1  0.44039182  0.78080759  0.04600011  1.0
  O  O6  1  0.04600011  0.44039185  0.78080758  1.0
  O  O7  1  0.21919298  0.95400055  0.55960728  1.0
  O  O8  1  0.95400055  0.55960728  0.21919298  1.0
  O  O9  1  0.55960730  0.21919296  0.95400054  1.0
