# generated using pymatgen
data_MgSc2O4
_symmetry_space_group_name_H-M   'P 1'
_cell_length_a   6.27732249
_cell_length_b   6.27733377
_cell_length_c   6.27733771
_cell_angle_alpha   60.00007686
_cell_angle_beta   60.00017101
_cell_angle_gamma   60.00010613
_symmetry_Int_Tables_number   1
_chemical_formula_structural   MgSc2O4
_chemical_formula_sum   'Mg2 Sc4 O8'
_cell_volume   174.90866266
_cell_formula_units_Z   2
loop_
 _symmetry_equiv_pos_site_id
 _symmetry_equiv_pos_as_xyz
  1  'x, y, z'
loop_
 _atom_site_type_symbol
 _atom_site_label
 _atom_site_symmetry_multiplicity
 _atom_site_fract_x
 _atom_site_fract_y
 _atom_site_fract_z
 _atom_site_occupancy
  Mg  Mg0  1  0.75000336  0.75000362  0.74999868  1.0
  Mg  Mg1  1  0.49999784  0.49999744  0.50000161  1.0
  Sc  Sc2  1  0.12500138  0.12499928  0.62500055  1.0
  Sc  Sc3  1  0.62500069  0.12499927  0.12500012  1.0
  Sc  Sc4  1  0.12500095  0.12499910  0.12499926  1.0
  Sc  Sc5  1  0.12499991  0.62500046  0.12500042  1.0
  O  O6  1  0.90169609  0.36609788  0.36609960  1.0
  O  O7  1  0.36609664  0.36609882  0.90169848  1.0
  O  O8  1  0.36609843  0.36609761  0.36609859  1.0
  O  O9  1  0.34830472  0.88390080  0.88389933  1.0
  O  O10  1  0.88389983  0.34830566  0.88389868  1.0
  O  O11  1  0.88390090  0.88390106  0.34830157  1.0
  O  O12  1  0.36609771  0.90169512  0.36610111  1.0
  O  O13  1  0.88390154  0.88390388  0.88390201  1.0
