# generated using pymatgen
data_MgSnN2
_symmetry_space_group_name_H-M   'P 1'
_cell_length_a   3.17804037
_cell_length_b   3.17804038
_cell_length_c   10.83446698
_cell_angle_alpha   90.00000222
_cell_angle_beta   90.00000355
_cell_angle_gamma   120.00006488
_symmetry_Int_Tables_number   1
_chemical_formula_structural   MgSnN2
_chemical_formula_sum   'Mg2 Sn2 N4'
_cell_volume   94.76690971
_cell_formula_units_Z   2
loop_
 _symmetry_equiv_pos_site_id
 _symmetry_equiv_pos_as_xyz
  1  'x, y, z'
loop_
 _atom_site_type_symbol
 _atom_site_label
 _atom_site_symmetry_multiplicity
 _atom_site_fract_x
 _atom_site_fract_y
 _atom_site_fract_z
 _atom_site_occupancy
  Mg  Mg0  1  0.00000000  0.00000001  0.99999999  1.0
  Mg  Mg1  1  0.00000000  0.00000000  0.49999999  1.0
  Sn  Sn2  1  0.66666667  0.33333333  0.24999994  1.0
  Sn  Sn3  1  0.33333333  0.66666667  0.75000005  1.0
  N  N4  1  0.33333333  0.66666667  0.12374165  1.0
  N  N5  1  0.33333333  0.66666667  0.37625837  1.0
  N  N6  1  0.66666667  0.33333333  0.62374165  1.0
  N  N7  1  0.66666667  0.33333333  0.87625836  1.0
