# generated using pymatgen
data_MgZrN2
_symmetry_space_group_name_H-M   'P 1'
_cell_length_a   3.17708829
_cell_length_b   3.17708830
_cell_length_c   10.73411464
_cell_angle_alpha   89.99999777
_cell_angle_beta   90.00000063
_cell_angle_gamma   120.00007507
_symmetry_Int_Tables_number   1
_chemical_formula_structural   MgZrN2
_chemical_formula_sum   'Mg2 Zr2 N4'
_cell_volume   93.83289193
_cell_formula_units_Z   2
loop_
 _symmetry_equiv_pos_site_id
 _symmetry_equiv_pos_as_xyz
  1  'x, y, z'
loop_
 _atom_site_type_symbol
 _atom_site_label
 _atom_site_symmetry_multiplicity
 _atom_site_fract_x
 _atom_site_fract_y
 _atom_site_fract_z
 _atom_site_occupancy
  Mg  Mg0  1  0.99999999  0.00000000  0.00000002  1.0
  Mg  Mg1  1  0.99999999  0.00000000  0.50000002  1.0
  Zr  Zr2  1  0.66666667  0.33333333  0.24999998  1.0
  Zr  Zr3  1  0.33333333  0.66666667  0.75000003  1.0
  N  N4  1  0.33333333  0.66666667  0.12630580  1.0
  N  N5  1  0.33333333  0.66666667  0.37369416  1.0
  N  N6  1  0.66666667  0.33333333  0.62630581  1.0
  N  N7  1  0.66666667  0.33333333  0.87369417  1.0
