# generated using pymatgen
data_MnBO3
_symmetry_space_group_name_H-M   'P 1'
_cell_length_a   5.71236883
_cell_length_b   5.71235868
_cell_length_c   5.71234615
_cell_angle_alpha   48.84861236
_cell_angle_beta   48.84866002
_cell_angle_gamma   48.84870667
_symmetry_Int_Tables_number   1
_chemical_formula_structural   MnBO3
_chemical_formula_sum   'Mn2 B2 O6'
_cell_volume   97.00346587
_cell_formula_units_Z   2
loop_
 _symmetry_equiv_pos_site_id
 _symmetry_equiv_pos_as_xyz
  1  'x, y, z'
loop_
 _atom_site_type_symbol
 _atom_site_label
 _atom_site_symmetry_multiplicity
 _atom_site_fract_x
 _atom_site_fract_y
 _atom_site_fract_z
 _atom_site_occupancy
  Mn  Mn0  1  0.50000001  0.49999999  0.50000000  1.0
  Mn  Mn1  1  0.99999998  0.00000002  0.00000001  1.0
  B  B2  1  0.75000047  0.74999936  0.75000041  1.0
  B  B3  1  0.24999954  0.25000064  0.24999959  1.0
  O  O4  1  0.04547893  0.45452117  0.74999994  1.0
  O  O5  1  0.45452233  0.74999891  0.04548026  1.0
  O  O6  1  0.25000003  0.95452099  0.54547898  1.0
  O  O7  1  0.95452108  0.54547883  0.25000006  1.0
  O  O8  1  0.54547768  0.25000109  0.95451974  1.0
  O  O9  1  0.74999997  0.04547901  0.45452101  1.0
