# generated using pymatgen
data_MnCN2
_symmetry_space_group_name_H-M   'P 1'
_cell_length_a   4.49343236
_cell_length_b   4.49343165
_cell_length_c   4.49387279
_cell_angle_alpha   122.01191444
_cell_angle_beta   122.01191189
_cell_angle_gamma   86.54068624
_symmetry_Int_Tables_number   1
_chemical_formula_structural   MnCN2
_chemical_formula_sum   'Mn2 C2 N4'
_cell_volume   62.09035713
_cell_formula_units_Z   2
loop_
 _symmetry_equiv_pos_site_id
 _symmetry_equiv_pos_as_xyz
  1  'x, y, z'
loop_
 _atom_site_type_symbol
 _atom_site_label
 _atom_site_symmetry_multiplicity
 _atom_site_fract_x
 _atom_site_fract_y
 _atom_site_fract_z
 _atom_site_occupancy
  Mn  Mn0  1  0.74997896  0.24992701  0.49998370  1.0
  Mn  Mn1  1  0.99992688  0.99997892  0.99998357  1.0
  C  C2  1  0.50000959  0.50000559  0.00000338  1.0
  C  C3  1  0.25000562  0.75000961  0.50000343  1.0
  N  N4  1  0.52894181  0.62499170  0.40391173  1.0
  N  N5  1  0.87504120  0.47110416  0.09610123  1.0
  N  N6  1  0.22110422  0.12504121  0.59610116  1.0
  N  N7  1  0.37499171  0.77894181  0.90391180  1.0
