# generated using pymatgen
data_MnGaN2
_symmetry_space_group_name_H-M   'P 1'
_cell_length_a   3.19889485
_cell_length_b   3.19889452
_cell_length_c   4.71541243
_cell_angle_alpha   89.99999060
_cell_angle_beta   89.99999940
_cell_angle_gamma   89.99998746
_symmetry_Int_Tables_number   1
_chemical_formula_structural   MnGaN2
_chemical_formula_sum   'Mn1 Ga1 N2'
_cell_volume   48.25247214
_cell_formula_units_Z   1
loop_
 _symmetry_equiv_pos_site_id
 _symmetry_equiv_pos_as_xyz
  1  'x, y, z'
loop_
 _atom_site_type_symbol
 _atom_site_label
 _atom_site_symmetry_multiplicity
 _atom_site_fract_x
 _atom_site_fract_y
 _atom_site_fract_z
 _atom_site_occupancy
  Mn  Mn0  1  0.50000002  0.50000000  0.49999993  1.0
  Ga  Ga1  1  0.00000000  0.99999994  0.00000002  1.0
  N  N2  1  0.99999996  0.49999997  0.24762061  1.0
  N  N3  1  0.50000002  0.00000009  0.75237943  1.0
