# generated using pymatgen
data_MnMoN2
_symmetry_space_group_name_H-M   'P 1'
_cell_length_a   2.96727943
_cell_length_b   2.96727944
_cell_length_c   10.89661397
_cell_angle_alpha   89.99999959
_cell_angle_beta   90.00000111
_cell_angle_gamma   120.00001073
_symmetry_Int_Tables_number   1
_chemical_formula_structural   MnMoN2
_chemical_formula_sum   'Mn2 Mo2 N4'
_cell_volume   83.08814127
_cell_formula_units_Z   2
loop_
 _symmetry_equiv_pos_site_id
 _symmetry_equiv_pos_as_xyz
  1  'x, y, z'
loop_
 _atom_site_type_symbol
 _atom_site_label
 _atom_site_symmetry_multiplicity
 _atom_site_fract_x
 _atom_site_fract_y
 _atom_site_fract_z
 _atom_site_occupancy
  Mn  Mn0  1  0.00000003  0.00000001  0.00000000  1.0
  Mn  Mn1  1  0.99999995  0.00000003  0.50000000  1.0
  Mo  Mo2  1  0.66666667  0.33333333  0.25000083  1.0
  Mo  Mo3  1  0.33333333  0.66666667  0.74999917  1.0
  N  N4  1  0.33333333  0.66666667  0.13108009  1.0
  N  N5  1  0.33333333  0.66666667  0.36892085  1.0
  N  N6  1  0.66666667  0.33333333  0.63107915  1.0
  N  N7  1  0.66666667  0.33333333  0.86891990  1.0
