# generated using pymatgen
data_MnOF
_symmetry_space_group_name_H-M   'P 1'
_cell_length_a   2.92526177
_cell_length_b   4.13442898
_cell_length_c   3.95331957
_cell_angle_alpha   89.99997184
_cell_angle_beta   89.99514491
_cell_angle_gamma   134.96533738
_symmetry_Int_Tables_number   1
_chemical_formula_structural   MnOF
_chemical_formula_sum   'Mn1 O1 F1'
_cell_volume   33.82904768
_cell_formula_units_Z   1
loop_
 _symmetry_equiv_pos_site_id
 _symmetry_equiv_pos_as_xyz
  1  'x, y, z'
loop_
 _atom_site_type_symbol
 _atom_site_label
 _atom_site_symmetry_multiplicity
 _atom_site_fract_x
 _atom_site_fract_y
 _atom_site_fract_z
 _atom_site_occupancy
  Mn  Mn0  1  0.99999327  0.49999637  0.00013228  1.0
  O  O1  1  0.99999786  0.99999872  0.00010131  1.0
  F  F2  1  0.00000787  0.50000392  0.50013042  1.0
