# generated using pymatgen
data_MnPN3
_symmetry_space_group_name_H-M   'P 1'
_cell_length_a   5.02492568
_cell_length_b   5.02492580
_cell_length_c   2.78974074
_cell_angle_alpha   90.00000021
_cell_angle_beta   90.00000043
_cell_angle_gamma   117.15169204
_symmetry_Int_Tables_number   1
_chemical_formula_structural   MnPN3
_chemical_formula_sum   'Mn1 P1 N3'
_cell_volume   62.67816171
_cell_formula_units_Z   1
loop_
 _symmetry_equiv_pos_site_id
 _symmetry_equiv_pos_as_xyz
  1  'x, y, z'
loop_
 _atom_site_type_symbol
 _atom_site_label
 _atom_site_symmetry_multiplicity
 _atom_site_fract_x
 _atom_site_fract_y
 _atom_site_fract_z
 _atom_site_occupancy
  Mn  Mn0  1  0.42613538  0.57386461  0.00000000  1.0
  P  P1  1  0.07710088  0.92289911  0.50000000  1.0
  N  N2  1  0.71111538  0.77329780  0.50000001  1.0
  N  N3  1  0.18699613  0.81300386  0.00000001  1.0
  N  N4  1  0.22670223  0.28888462  0.49999998  1.0
