# generated using pymatgen
data_MnSiN2
_symmetry_space_group_name_H-M   'P 1'
_cell_length_a   2.82684794
_cell_length_b   2.82684798
_cell_length_c   5.34635537
_cell_angle_alpha   74.69335174
_cell_angle_beta   74.69335739
_cell_angle_gamma   60.00579870
_symmetry_Int_Tables_number   1
_chemical_formula_structural   MnSiN2
_chemical_formula_sum   'Mn1 Si1 N2'
_cell_volume   35.24040181
_cell_formula_units_Z   1
loop_
 _symmetry_equiv_pos_site_id
 _symmetry_equiv_pos_as_xyz
  1  'x, y, z'
loop_
 _atom_site_type_symbol
 _atom_site_label
 _atom_site_symmetry_multiplicity
 _atom_site_fract_x
 _atom_site_fract_y
 _atom_site_fract_z
 _atom_site_occupancy
  Mn  Mn0  1  0.00000001  0.00000000  0.00000000  1.0
  Si  Si1  1  0.50000000  0.50000000  0.50000001  1.0
  N  N2  1  0.76636772  0.76636768  0.70115107  1.0
  N  N3  1  0.23363227  0.23363232  0.29884893  1.0
