# generated using pymatgen
data_MnSiO4
_symmetry_space_group_name_H-M   'P 1'
_cell_length_a   6.82968022
_cell_length_b   6.83127536
_cell_length_c   6.83021935
_cell_angle_alpha   140.50263618
_cell_angle_beta   140.56982949
_cell_angle_gamma   57.10468070
_symmetry_Int_Tables_number   1
_chemical_formula_structural   MnSiO4
_chemical_formula_sum   'Mn2 Si2 O8'
_cell_volume   127.62394460
_cell_formula_units_Z   2
loop_
 _symmetry_equiv_pos_site_id
 _symmetry_equiv_pos_as_xyz
  1  'x, y, z'
loop_
 _atom_site_type_symbol
 _atom_site_label
 _atom_site_symmetry_multiplicity
 _atom_site_fract_x
 _atom_site_fract_y
 _atom_site_fract_z
 _atom_site_occupancy
  Mn  Mn0  1  0.49827653  0.49836708  0.99974300  1.0
  Mn  Mn1  1  0.25170577  0.75161541  0.50025640  1.0
  Si  Si2  1  0.99970276  0.99983652  0.99955382  1.0
  Si  Si3  1  0.75031122  0.25017650  0.50044756  1.0
  O  O4  1  0.88729799  0.43724405  0.95174824  1.0
  O  O5  1  0.18625102  0.73604629  0.05054186  1.0
  O  O6  1  0.68516687  0.13540501  0.94888070  1.0
  O  O7  1  0.48575904  0.93587457  0.04884035  1.0
  O  O8  1  0.26423179  0.31412073  0.45114449  1.0
  O  O9  1  0.06483445  0.11460096  0.55112324  1.0
  O  O10  1  0.56375081  0.51395116  0.44945420  1.0
  O  O11  1  0.86271175  0.81276172  0.54826613  1.0
