# generated using pymatgen
data_MnSiO3
_symmetry_space_group_name_H-M   'P 1'
_cell_length_a   2.77735446
_cell_length_b   5.03559164
_cell_length_c   6.85867192
_cell_angle_alpha   90.00000411
_cell_angle_beta   89.99999909
_cell_angle_gamma   106.01175459
_symmetry_Int_Tables_number   1
_chemical_formula_structural   MnSiO3
_chemical_formula_sum   'Mn2 Si2 O6'
_cell_volume   92.20148626
_cell_formula_units_Z   2
loop_
 _symmetry_equiv_pos_site_id
 _symmetry_equiv_pos_as_xyz
  1  'x, y, z'
loop_
 _atom_site_type_symbol
 _atom_site_label
 _atom_site_symmetry_multiplicity
 _atom_site_fract_x
 _atom_site_fract_y
 _atom_site_fract_z
 _atom_site_occupancy
  Mn  Mn0  1  0.26105099  0.52224067  0.75000003  1.0
  Mn  Mn1  1  0.73894896  0.47775927  0.24999997  1.0
  Si  Si2  1  0.00000002  0.00000003  0.99999999  1.0
  Si  Si3  1  0.00000002  0.00000004  0.50000001  1.0
  O  O4  1  0.62167480  0.24335164  0.95085695  1.0
  O  O5  1  0.37832519  0.75664834  0.04914305  1.0
  O  O6  1  0.37832523  0.75664835  0.45085693  1.0
  O  O7  1  0.62167479  0.24335167  0.54914307  1.0
  O  O8  1  0.93724616  0.87453062  0.74999997  1.0
  O  O9  1  0.06275384  0.12546937  0.25000002  1.0
