# generated using pymatgen
data_MnSiO3
_symmetry_space_group_name_H-M   'P 1'
_cell_length_a   5.61666567
_cell_length_b   5.61666558
_cell_length_c   5.61666567
_cell_angle_alpha   51.64640970
_cell_angle_beta   51.64640614
_cell_angle_gamma   51.64640647
_symmetry_Int_Tables_number   1
_chemical_formula_structural   MnSiO3
_chemical_formula_sum   'Mn2 Si2 O6'
_cell_volume   100.65984109
_cell_formula_units_Z   2
loop_
 _symmetry_equiv_pos_site_id
 _symmetry_equiv_pos_as_xyz
  1  'x, y, z'
loop_
 _atom_site_type_symbol
 _atom_site_label
 _atom_site_symmetry_multiplicity
 _atom_site_fract_x
 _atom_site_fract_y
 _atom_site_fract_z
 _atom_site_occupancy
  Mn  Mn0  1  0.36507378  0.36507394  0.36507385  1.0
  Mn  Mn1  1  0.63492620  0.63492605  0.63492616  1.0
  Si  Si2  1  0.16076693  0.16076692  0.16076693  1.0
  Si  Si3  1  0.83923308  0.83923307  0.83923305  1.0
  O  O4  1  0.81039295  0.04224548  0.43824043  1.0
  O  O5  1  0.43824046  0.81039298  0.04224542  1.0
  O  O6  1  0.04224546  0.43824045  0.81039297  1.0
  O  O7  1  0.18960704  0.95775453  0.56175957  1.0
  O  O8  1  0.95775454  0.56175956  0.18960703  1.0
  O  O9  1  0.56175958  0.18960701  0.95775458  1.0
