# generated using pymatgen
data_MoPN3
_symmetry_space_group_name_H-M   'P 1'
_cell_length_a   5.30504292
_cell_length_b   5.30504267
_cell_length_c   2.78259351
_cell_angle_alpha   90.00000057
_cell_angle_beta   90.00000083
_cell_angle_gamma   118.97819329
_symmetry_Int_Tables_number   1
_chemical_formula_structural   MoPN3
_chemical_formula_sum   'Mo1 P1 N3'
_cell_volume   68.50754295
_cell_formula_units_Z   1
loop_
 _symmetry_equiv_pos_site_id
 _symmetry_equiv_pos_as_xyz
  1  'x, y, z'
loop_
 _atom_site_type_symbol
 _atom_site_label
 _atom_site_symmetry_multiplicity
 _atom_site_fract_x
 _atom_site_fract_y
 _atom_site_fract_z
 _atom_site_occupancy
  Mo  Mo0  1  0.40696615  0.59303385  0.00000001  1.0
  P  P1  1  0.07621260  0.92378742  0.49999999  1.0
  N  N2  1  0.72464273  0.76306101  0.50000001  1.0
  N  N3  1  0.18328955  0.81671045  0.99999999  1.0
  N  N4  1  0.23693897  0.27535727  0.50000000  1.0
