# generated using pymatgen
data_NaOsO3
_symmetry_space_group_name_H-M   'P 1'
_cell_length_a   3.90576031
_cell_length_b   3.90576043
_cell_length_c   3.90575430
_cell_angle_alpha   90.00000939
_cell_angle_beta   90.00000411
_cell_angle_gamma   89.99999589
_symmetry_Int_Tables_number   1
_chemical_formula_structural   NaOsO3
_chemical_formula_sum   'Na1 Os1 O3'
_cell_volume   59.58214150
_cell_formula_units_Z   1
loop_
 _symmetry_equiv_pos_site_id
 _symmetry_equiv_pos_as_xyz
  1  'x, y, z'
loop_
 _atom_site_type_symbol
 _atom_site_label
 _atom_site_symmetry_multiplicity
 _atom_site_fract_x
 _atom_site_fract_y
 _atom_site_fract_z
 _atom_site_occupancy
  Na  Na0  1  0.00000000  0.99999998  0.00000000  1.0
  Os  Os1  1  0.49999999  0.50000006  0.50000004  1.0
  O  O2  1  0.99999999  0.50000000  0.50000001  1.0
  O  O3  1  0.50000000  0.00000003  0.49999995  1.0
  O  O4  1  0.50000002  0.49999994  0.00000000  1.0
