# generated using pymatgen
data_NaReS3
_symmetry_space_group_name_H-M   'P 1'
_cell_length_a   3.88761400
_cell_length_b   3.88761400
_cell_length_c   3.88761400
_cell_angle_alpha   90.00000000
_cell_angle_beta   90.00000000
_cell_angle_gamma   90.00000000
_symmetry_Int_Tables_number   1
_chemical_formula_structural   NaReS3
_chemical_formula_sum   'Na1 Re1 S3'
_cell_volume   58.75561985
_cell_formula_units_Z   1
loop_
 _symmetry_equiv_pos_site_id
 _symmetry_equiv_pos_as_xyz
  1  'x, y, z'
loop_
 _atom_type_symbol
 _atom_type_oxidation_number
  Na+  1.0
  Re5+  5.0
  S2-  -2.0
loop_
 _atom_site_type_symbol
 _atom_site_label
 _atom_site_symmetry_multiplicity
 _atom_site_fract_x
 _atom_site_fract_y
 _atom_site_fract_z
 _atom_site_occupancy
  Na+  Na0  1  0.00000000  0.00000000  0.00000000  1.0
  Re5+  Re1  1  0.50000000  0.50000000  0.50000000  1.0
  S2-  S2  1  0.50000000  0.50000000  0.00000000  1.0
  S2-  S3  1  0.50000000  0.00000000  0.50000000  1.0
  S2-  S4  1  0.00000000  0.50000000  0.50000000  1.0
