# generated using pymatgen
data_NbAlO4
_symmetry_space_group_name_H-M   'P 1'
_cell_length_a   5.58625019
_cell_length_b   5.58625020
_cell_length_c   5.58624739
_cell_angle_alpha   108.37860557
_cell_angle_beta   108.37861292
_cell_angle_gamma   111.67935716
_symmetry_Int_Tables_number   1
_chemical_formula_structural   NbAlO4
_chemical_formula_sum   'Nb2 Al2 O8'
_cell_volume   134.04556079
_cell_formula_units_Z   2
loop_
 _symmetry_equiv_pos_site_id
 _symmetry_equiv_pos_as_xyz
  1  'x, y, z'
loop_
 _atom_site_type_symbol
 _atom_site_label
 _atom_site_symmetry_multiplicity
 _atom_site_fract_x
 _atom_site_fract_y
 _atom_site_fract_z
 _atom_site_occupancy
  Nb  Nb0  1  0.12499996  0.87500004  0.24999999  1.0
  Nb  Nb1  1  0.87500004  0.12499996  0.75000000  1.0
  Al  Al2  1  0.62500018  0.37499979  0.25000001  1.0
  Al  Al3  1  0.37499983  0.62500021  0.74999999  1.0
  O  O4  1  0.82204084  0.38191281  0.05987233  1.0
  O  O5  1  0.76216833  0.82204040  0.94012778  1.0
  O  O6  1  0.23783167  0.17795961  0.05987223  1.0
  O  O7  1  0.17795916  0.61808719  0.94012766  1.0
  O  O8  1  0.17795957  0.23783163  0.55987219  1.0
  O  O9  1  0.61808718  0.17795917  0.44012765  1.0
  O  O10  1  0.82204043  0.76216837  0.44012781  1.0
  O  O11  1  0.38191282  0.82204081  0.55987234  1.0
