# generated using pymatgen
data_NbBS4
_symmetry_space_group_name_H-M   'P 1'
_cell_length_a   6.57244771
_cell_length_b   6.57244773
_cell_length_c   6.57244683
_cell_angle_alpha   106.41010678
_cell_angle_beta   106.41010836
_cell_angle_gamma   115.78393517
_symmetry_Int_Tables_number   1
_chemical_formula_structural   NbBS4
_chemical_formula_sum   'Nb2 B2 S8'
_cell_volume   216.54303911
_cell_formula_units_Z   2
loop_
 _symmetry_equiv_pos_site_id
 _symmetry_equiv_pos_as_xyz
  1  'x, y, z'
loop_
 _atom_site_type_symbol
 _atom_site_label
 _atom_site_symmetry_multiplicity
 _atom_site_fract_x
 _atom_site_fract_y
 _atom_site_fract_z
 _atom_site_occupancy
  Nb  Nb0  1  0.12499999  0.87500001  0.25000000  1.0
  Nb  Nb1  1  0.87500000  0.12500000  0.75000000  1.0
  B  B2  1  0.62499998  0.37500001  0.24999998  1.0
  B  B3  1  0.37500001  0.62500000  0.75000001  1.0
  S  S4  1  0.81881780  0.39352165  0.07470383  1.0
  S  S5  1  0.74411394  0.81881778  0.92529618  1.0
  S  S6  1  0.25588604  0.18118217  0.07470376  1.0
  S  S7  1  0.18118222  0.60647836  0.92529619  1.0
  S  S8  1  0.18118221  0.25588606  0.57470383  1.0
  S  S9  1  0.60647834  0.18118221  0.42529616  1.0
  S  S10  1  0.81881782  0.74411396  0.42529621  1.0
  S  S11  1  0.39352165  0.81881780  0.57470384  1.0
