# generated using pymatgen
data_NbSN
_symmetry_space_group_name_H-M   'P 1'
_cell_length_a   5.68490859
_cell_length_b   5.47092130
_cell_length_c   5.68318633
_cell_angle_alpha   90.00000000
_cell_angle_beta   99.03718083
_cell_angle_gamma   89.99999969
_symmetry_Int_Tables_number   1
_chemical_formula_structural   NbSN
_chemical_formula_sum   'Nb4 S4 N4'
_cell_volume   174.56253694
_cell_formula_units_Z   4
loop_
 _symmetry_equiv_pos_site_id
 _symmetry_equiv_pos_as_xyz
  1  'x, y, z'
loop_
 _atom_site_type_symbol
 _atom_site_label
 _atom_site_symmetry_multiplicity
 _atom_site_fract_x
 _atom_site_fract_y
 _atom_site_fract_z
 _atom_site_occupancy
  Nb  Nb0  1  0.35227531  0.47123021  0.72269373  1.0
  Nb  Nb1  1  0.64772469  0.97123022  0.77730627  1.0
  Nb  Nb2  1  0.64772469  0.52876978  0.27730627  1.0
  Nb  Nb3  1  0.35227531  0.02876979  0.22269373  1.0
  S  S4  1  0.07430971  0.31980166  0.35171411  1.0
  S  S5  1  0.92569029  0.81980168  0.14828590  1.0
  S  S6  1  0.92569029  0.68019834  0.64828590  1.0
  S  S7  1  0.07430971  0.18019833  0.85171410  1.0
  N  N8  1  0.44148483  0.74326160  0.98546719  1.0
  N  N9  1  0.55851517  0.24326161  0.51453281  1.0
  N  N10  1  0.55851517  0.25673839  0.01453281  1.0
  N  N11  1  0.44148483  0.75673839  0.48546719  1.0
