# generated using pymatgen
data_NbVO3
_symmetry_space_group_name_H-M   'P 1'
_cell_length_a   4.04446071
_cell_length_b   4.04441850
_cell_length_c   4.04438514
_cell_angle_alpha   90.00202627
_cell_angle_beta   89.99949805
_cell_angle_gamma   90.00295288
_symmetry_Int_Tables_number   1
_chemical_formula_structural   NbVO3
_chemical_formula_sum   'Nb1 V1 O3'
_cell_volume   66.15599630
_cell_formula_units_Z   1
loop_
 _symmetry_equiv_pos_site_id
 _symmetry_equiv_pos_as_xyz
  1  'x, y, z'
loop_
 _atom_site_type_symbol
 _atom_site_label
 _atom_site_symmetry_multiplicity
 _atom_site_fract_x
 _atom_site_fract_y
 _atom_site_fract_z
 _atom_site_occupancy
  Nb  Nb0  1  0.49999995  0.50000007  0.49999998  1.0
  V  V1  1  0.00000016  0.99999977  0.00000007  1.0
  O  O2  1  0.49999996  0.50000006  0.99999998  1.0
  O  O3  1  0.49999998  0.00000006  0.49999999  1.0
  O  O4  1  0.99999996  0.50000005  0.49999998  1.0
