# generated using pymatgen
data_Nd2Ti2O7
_symmetry_space_group_name_H-M   'P 1'
_cell_length_a   7.39236886
_cell_length_b   7.39237014
_cell_length_c   7.39237005
_cell_angle_alpha   59.99996705
_cell_angle_beta   59.99996056
_cell_angle_gamma   59.99996210
_symmetry_Int_Tables_number   1
_chemical_formula_structural   Nd2Ti2O7
_chemical_formula_sum   'Nd4 Ti4 O14'
_cell_volume   285.65094954
_cell_formula_units_Z   2
loop_
 _symmetry_equiv_pos_site_id
 _symmetry_equiv_pos_as_xyz
  1  'x, y, z'
loop_
 _atom_site_type_symbol
 _atom_site_label
 _atom_site_symmetry_multiplicity
 _atom_site_fract_x
 _atom_site_fract_y
 _atom_site_fract_z
 _atom_site_occupancy
  Nd  Nd0  1  0.12500000  0.12500000  0.62500000  1.0
  Nd  Nd1  1  0.12500001  0.62500000  0.12500001  1.0
  Nd  Nd2  1  0.62500000  0.12500000  0.12500000  1.0
  Nd  Nd3  1  0.12500000  0.12500000  0.12500000  1.0
  Ti  Ti4  1  0.62500000  0.62500000  0.12500000  1.0
  Ti  Ti5  1  0.62500000  0.12500000  0.62500000  1.0
  Ti  Ti6  1  0.12500000  0.62500000  0.62500001  1.0
  Ti  Ti7  1  0.62500000  0.62500000  0.62500000  1.0
  O  O8  1  0.24999997  0.24999993  0.24999995  1.0
  O  O9  1  0.00000003  0.00000007  0.00000005  1.0
  O  O10  1  0.54971421  0.95028586  0.54971424  1.0
  O  O11  1  0.29971429  0.70028575  0.29971409  1.0
  O  O12  1  0.54971420  0.54971425  0.95028585  1.0
  O  O13  1  0.95028571  0.54971428  0.54971426  1.0
  O  O14  1  0.54971418  0.95028587  0.95028584  1.0
  O  O15  1  0.95028571  0.95028594  0.54971423  1.0
  O  O16  1  0.95028571  0.54971425  0.95028590  1.0
  O  O17  1  0.70028582  0.29971413  0.29971416  1.0
  O  O18  1  0.29971429  0.70028573  0.70028574  1.0
  O  O19  1  0.70028579  0.29971413  0.70028576  1.0
  O  O20  1  0.29971429  0.29971406  0.70028577  1.0
  O  O21  1  0.70028580  0.70028576  0.29971415  1.0
