# generated using pymatgen
data_NdCuO3
_symmetry_space_group_name_H-M   'P 1'
_cell_length_a   3.86012903
_cell_length_b   3.86012921
_cell_length_c   3.86012887
_cell_angle_alpha   90.00000119
_cell_angle_beta   89.99999881
_cell_angle_gamma   89.99999970
_symmetry_Int_Tables_number   1
_chemical_formula_structural   NdCuO3
_chemical_formula_sum   'Nd1 Cu1 O3'
_cell_volume   57.51822398
_cell_formula_units_Z   1
loop_
 _symmetry_equiv_pos_site_id
 _symmetry_equiv_pos_as_xyz
  1  'x, y, z'
loop_
 _atom_site_type_symbol
 _atom_site_label
 _atom_site_symmetry_multiplicity
 _atom_site_fract_x
 _atom_site_fract_y
 _atom_site_fract_z
 _atom_site_occupancy
  Nd  Nd0  1  0.00000000  0.00000000  0.00000000  1.0
  Cu  Cu1  1  0.50000000  0.50000001  0.49999999  1.0
  O  O2  1  0.50000000  0.49999998  0.00000002  1.0
  O  O3  1  0.49999998  0.00000000  0.49999999  1.0
  O  O4  1  0.00000002  0.50000002  0.49999999  1.0
