# generated using pymatgen
data_NiPSe
_symmetry_space_group_name_H-M   'P 1'
_cell_length_a   5.74911084
_cell_length_b   5.74911186
_cell_length_c   5.74911197
_cell_angle_alpha   89.99968437
_cell_angle_beta   90.00051973
_cell_angle_gamma   90.00017998
_symmetry_Int_Tables_number   1
_chemical_formula_structural   NiPSe
_chemical_formula_sum   'Ni4 P4 Se4'
_cell_volume   190.02126613
_cell_formula_units_Z   4
loop_
 _symmetry_equiv_pos_site_id
 _symmetry_equiv_pos_as_xyz
  1  'x, y, z'
loop_
 _atom_site_type_symbol
 _atom_site_label
 _atom_site_symmetry_multiplicity
 _atom_site_fract_x
 _atom_site_fract_y
 _atom_site_fract_z
 _atom_site_occupancy
  Ni  Ni0  1  0.01486133  0.01486167  0.01486506  1.0
  Ni  Ni1  1  0.48513293  0.98513352  0.51486536  1.0
  Ni  Ni2  1  0.51487292  0.48512872  0.98513395  1.0
  Ni  Ni3  1  0.98514029  0.51486122  0.48513654  1.0
  P  P4  1  0.61729715  0.61730217  0.61729676  1.0
  P  P5  1  0.88270503  0.38270450  0.11729401  1.0
  P  P6  1  0.11729407  0.88270819  0.38270289  1.0
  P  P7  1  0.38270161  0.11729513  0.88270349  1.0
  Se  Se8  1  0.38061250  0.38061198  0.38061398  1.0
  Se  Se9  1  0.11938978  0.61938848  0.88060989  1.0
  Se  Se10  1  0.88060928  0.11939009  0.61938530  1.0
  Se  Se11  1  0.61938410  0.88061433  0.11939077  1.0
