# generated using pymatgen
data_PNO
_symmetry_space_group_name_H-M   'P 1'
_cell_length_a   4.51532068
_cell_length_b   4.32117919
_cell_length_c   5.56194287
_cell_angle_alpha   89.99999849
_cell_angle_beta   77.54147529
_cell_angle_gamma   89.99999972
_symmetry_Int_Tables_number   1
_chemical_formula_structural   PNO
_chemical_formula_sum   'P4 N4 O4'
_cell_volume   105.96647524
_cell_formula_units_Z   4
loop_
 _symmetry_equiv_pos_site_id
 _symmetry_equiv_pos_as_xyz
  1  'x, y, z'
loop_
 _atom_site_type_symbol
 _atom_site_label
 _atom_site_symmetry_multiplicity
 _atom_site_fract_x
 _atom_site_fract_y
 _atom_site_fract_z
 _atom_site_occupancy
  P  P0  1  0.26488091  0.59830901  0.68684145  1.0
  P  P1  1  0.73511911  0.09830900  0.81315855  1.0
  P  P2  1  0.73511909  0.40169099  0.31315855  1.0
  P  P3  1  0.26488089  0.90169099  0.18684144  1.0
  N  N4  1  0.40391066  0.82199784  0.88982359  1.0
  N  N5  1  0.59608936  0.32199786  0.61017642  1.0
  N  N6  1  0.59608935  0.17800215  0.11017641  1.0
  N  N7  1  0.40391064  0.67800213  0.38982358  1.0
  O  O8  1  0.05759554  0.17583566  0.31095475  1.0
  O  O9  1  0.94240444  0.67583566  0.18904524  1.0
  O  O10  1  0.94240447  0.82416437  0.68904523  1.0
  O  O11  1  0.05759555  0.32416436  0.81095477  1.0
