# generated using pymatgen
data_Pr2Zr2O7
_symmetry_space_group_name_H-M   'P 1'
_cell_length_a   7.69037873
_cell_length_b   7.69037886
_cell_length_c   7.69037538
_cell_angle_alpha   59.99996461
_cell_angle_beta   59.99996441
_cell_angle_gamma   59.99992833
_symmetry_Int_Tables_number   1
_chemical_formula_structural   Pr2Zr2O7
_chemical_formula_sum   'Pr4 Zr4 O14'
_cell_volume   321.60851337
_cell_formula_units_Z   2
loop_
 _symmetry_equiv_pos_site_id
 _symmetry_equiv_pos_as_xyz
  1  'x, y, z'
loop_
 _atom_site_type_symbol
 _atom_site_label
 _atom_site_symmetry_multiplicity
 _atom_site_fract_x
 _atom_site_fract_y
 _atom_site_fract_z
 _atom_site_occupancy
  Pr  Pr0  1  0.12499991  0.12500013  0.12500006  1.0
  Pr  Pr1  1  0.62499990  0.12500012  0.12499983  1.0
  Pr  Pr2  1  0.12499995  0.12500009  0.62499984  1.0
  Pr  Pr3  1  0.12500019  0.62499993  0.12499993  1.0
  Zr  Zr4  1  0.62500015  0.62499988  0.12500004  1.0
  Zr  Zr5  1  0.62499998  0.62500010  0.62499994  1.0
  Zr  Zr6  1  0.62499998  0.12499994  0.62499999  1.0
  Zr  Zr7  1  0.12499996  0.62499997  0.62500010  1.0
  O  O8  1  0.70825067  0.70825048  0.29174952  1.0
  O  O9  1  0.95824876  0.54175118  0.54175125  1.0
  O  O10  1  0.24999995  0.25000000  0.24999991  1.0
  O  O11  1  0.95824880  0.54175115  0.95824872  1.0
  O  O12  1  0.95825058  0.95825058  0.54174950  1.0
  O  O13  1  0.54175121  0.95824874  0.54175117  1.0
  O  O14  1  0.70824870  0.29175114  0.29175129  1.0
  O  O15  1  0.54175138  0.95824875  0.95824874  1.0
  O  O16  1  0.29174943  0.29174937  0.70825062  1.0
  O  O17  1  0.70824864  0.29175129  0.70824888  1.0
  O  O18  1  0.29175121  0.70824879  0.29175130  1.0
  O  O19  1  0.00000005  0.00000009  0.99999998  1.0
  O  O20  1  0.29175121  0.70824874  0.70824894  1.0
  O  O21  1  0.54174943  0.54174954  0.95825045  1.0
