# generated using pymatgen
data_PrCrO3
_symmetry_space_group_name_H-M   'P 1'
_cell_length_a   3.93439026
_cell_length_b   3.93439195
_cell_length_c   3.93439364
_cell_angle_alpha   90.00000379
_cell_angle_beta   90.00000728
_cell_angle_gamma   90.00000087
_symmetry_Int_Tables_number   1
_chemical_formula_structural   PrCrO3
_chemical_formula_sum   'Pr1 Cr1 O3'
_cell_volume   60.90218419
_cell_formula_units_Z   1
loop_
 _symmetry_equiv_pos_site_id
 _symmetry_equiv_pos_as_xyz
  1  'x, y, z'
loop_
 _atom_site_type_symbol
 _atom_site_label
 _atom_site_symmetry_multiplicity
 _atom_site_fract_x
 _atom_site_fract_y
 _atom_site_fract_z
 _atom_site_occupancy
  Pr  Pr0  1  0.00000014  0.99999992  0.00000003  1.0
  Cr  Cr1  1  0.49999995  0.50000003  0.49999999  1.0
  O  O2  1  0.99999996  0.50000005  0.49999998  1.0
  O  O3  1  0.49999998  0.00000002  0.50000002  1.0
  O  O4  1  0.49999997  0.49999998  0.99999998  1.0
