# generated using pymatgen
data_PrInO3
_symmetry_space_group_name_H-M   'P 1'
_cell_length_a   4.18579099
_cell_length_b   4.18579259
_cell_length_c   4.18579217
_cell_angle_alpha   89.99999945
_cell_angle_beta   90.00000315
_cell_angle_gamma   90.00000274
_symmetry_Int_Tables_number   1
_chemical_formula_structural   PrInO3
_chemical_formula_sum   'Pr1 In1 O3'
_cell_volume   73.33864892
_cell_formula_units_Z   1
loop_
 _symmetry_equiv_pos_site_id
 _symmetry_equiv_pos_as_xyz
  1  'x, y, z'
loop_
 _atom_site_type_symbol
 _atom_site_label
 _atom_site_symmetry_multiplicity
 _atom_site_fract_x
 _atom_site_fract_y
 _atom_site_fract_z
 _atom_site_occupancy
  Pr  Pr0  1  0.00000000  0.00000000  0.00000000  1.0
  In  In1  1  0.50000000  0.50000000  0.50000001  1.0
  O  O2  1  0.99999999  0.50000000  0.50000001  1.0
  O  O3  1  0.50000001  0.00000000  0.49999999  1.0
  O  O4  1  0.50000000  0.50000000  0.99999999  1.0
