# generated using pymatgen
data_PrRhO3
_symmetry_space_group_name_H-M   'P 1'
_cell_length_a   5.44898835
_cell_length_b   5.94257968
_cell_length_c   7.92067636
_cell_angle_alpha   90.00000313
_cell_angle_beta   89.99987326
_cell_angle_gamma   89.99975959
_symmetry_Int_Tables_number   1
_chemical_formula_structural   PrRhO3
_chemical_formula_sum   'Pr4 Rh4 O12'
_cell_volume   256.47979701
_cell_formula_units_Z   4
loop_
 _symmetry_equiv_pos_site_id
 _symmetry_equiv_pos_as_xyz
  1  'x, y, z'
loop_
 _atom_site_type_symbol
 _atom_site_label
 _atom_site_symmetry_multiplicity
 _atom_site_fract_x
 _atom_site_fract_y
 _atom_site_fract_z
 _atom_site_occupancy
  Pr  Pr0  1  0.47500128  0.57679137  0.75000009  1.0
  Pr  Pr1  1  0.97499933  0.92320723  0.25000008  1.0
  Pr  Pr2  1  0.02500067  0.07679277  0.74999992  1.0
  Pr  Pr3  1  0.52499873  0.42320863  0.24999991  1.0
  Rh  Rh4  1  0.50000000  0.00000000  0.50000000  1.0
  Rh  Rh5  1  0.00000000  0.50000000  0.50000000  1.0
  Rh  Rh6  1  0.00000000  0.50000000  0.00000000  1.0
  Rh  Rh7  1  0.50000000  0.00000000  0.00000000  1.0
  O  O8  1  0.81517907  0.19643345  0.44792112  1.0
  O  O9  1  0.31517256  0.30357322  0.55207879  1.0
  O  O10  1  0.68482589  0.69642825  0.05207873  1.0
  O  O11  1  0.18482224  0.80356806  0.94792109  1.0
  O  O12  1  0.18482093  0.80356654  0.55207888  1.0
  O  O13  1  0.68482744  0.69642678  0.44792121  1.0
  O  O14  1  0.31517411  0.30357175  0.94792127  1.0
  O  O15  1  0.81517775  0.19643195  0.05207891  1.0
  O  O16  1  0.39191952  0.03348671  0.24999915  1.0
  O  O17  1  0.89192107  0.46651437  0.74999952  1.0
  O  O18  1  0.10807893  0.53348563  0.25000048  1.0
  O  O19  1  0.60808048  0.96651329  0.75000085  1.0
