# generated using pymatgen
data_PrScO3
_symmetry_space_group_name_H-M   'P 1'
_cell_length_a   4.08705085
_cell_length_b   4.08705390
_cell_length_c   4.08704974
_cell_angle_alpha   89.99999860
_cell_angle_beta   90.00000000
_cell_angle_gamma   89.99999944
_symmetry_Int_Tables_number   1
_chemical_formula_structural   PrScO3
_chemical_formula_sum   'Pr1 Sc1 O3'
_cell_volume   68.27006707
_cell_formula_units_Z   1
loop_
 _symmetry_equiv_pos_site_id
 _symmetry_equiv_pos_as_xyz
  1  'x, y, z'
loop_
 _atom_site_type_symbol
 _atom_site_label
 _atom_site_symmetry_multiplicity
 _atom_site_fract_x
 _atom_site_fract_y
 _atom_site_fract_z
 _atom_site_occupancy
  Pr  Pr0  1  0.00000000  0.99999999  0.00000000  1.0
  Sc  Sc1  1  0.50000002  0.50000002  0.50000005  1.0
  O  O2  1  0.00000003  0.50000000  0.49999998  1.0
  O  O3  1  0.49999999  0.99999999  0.49999997  1.0
  O  O4  1  0.49999997  0.50000001  0.00000001  1.0
