# generated using pymatgen
data_PWN3
_symmetry_space_group_name_H-M   'P 1'
_cell_length_a   5.31624962
_cell_length_b   5.31624987
_cell_length_c   2.79017386
_cell_angle_alpha   89.99999834
_cell_angle_beta   89.99999793
_cell_angle_gamma   118.83327134
_symmetry_Int_Tables_number   1
_chemical_formula_structural   PWN3
_chemical_formula_sum   'P1 W1 N3'
_cell_volume   69.08112451
_cell_formula_units_Z   1
loop_
 _symmetry_equiv_pos_site_id
 _symmetry_equiv_pos_as_xyz
  1  'x, y, z'
loop_
 _atom_site_type_symbol
 _atom_site_label
 _atom_site_symmetry_multiplicity
 _atom_site_fract_x
 _atom_site_fract_y
 _atom_site_fract_z
 _atom_site_occupancy
  P  P0  1  0.07603602  0.92396398  0.50000000  1.0
  W  W1  1  0.40623177  0.59376821  0.00000000  1.0
  N  N2  1  0.72590404  0.76329885  0.49999997  1.0
  N  N3  1  0.18317700  0.81682300  0.00000000  1.0
  N  N4  1  0.23670116  0.27409595  0.50000003  1.0
