# generated using pymatgen
data_RbAsO3
_symmetry_space_group_name_H-M   'P 1'
_cell_length_a   3.97438568
_cell_length_b   3.97438172
_cell_length_c   3.97439781
_cell_angle_alpha   90.00000029
_cell_angle_beta   90.00000259
_cell_angle_gamma   90.00000750
_symmetry_Int_Tables_number   1
_chemical_formula_structural   RbAsO3
_chemical_formula_sum   'Rb1 As1 O3'
_cell_volume   62.77849801
_cell_formula_units_Z   1
loop_
 _symmetry_equiv_pos_site_id
 _symmetry_equiv_pos_as_xyz
  1  'x, y, z'
loop_
 _atom_site_type_symbol
 _atom_site_label
 _atom_site_symmetry_multiplicity
 _atom_site_fract_x
 _atom_site_fract_y
 _atom_site_fract_z
 _atom_site_occupancy
  Rb  Rb0  1  0.00000002  0.00000002  0.99999992  1.0
  As  As1  1  0.49999998  0.49999998  0.50000000  1.0
  O  O2  1  0.00000004  0.49999993  0.50000001  1.0
  O  O3  1  0.49999994  0.00000008  0.49999997  1.0
  O  O4  1  0.50000002  0.49999999  0.00000010  1.0
