# generated using pymatgen
data_Sc2TiO5
_symmetry_space_group_name_H-M   'P 1'
_cell_length_a   5.53899036
_cell_length_b   5.53899041
_cell_length_c   10.20972657
_cell_angle_alpha   90.00000091
_cell_angle_beta   89.99999865
_cell_angle_gamma   138.57098697
_symmetry_Int_Tables_number   1
_chemical_formula_structural   Sc2TiO5
_chemical_formula_sum   'Sc4 Ti2 O10'
_cell_volume   207.26738398
_cell_formula_units_Z   2
loop_
 _symmetry_equiv_pos_site_id
 _symmetry_equiv_pos_as_xyz
  1  'x, y, z'
loop_
 _atom_site_type_symbol
 _atom_site_label
 _atom_site_symmetry_multiplicity
 _atom_site_fract_x
 _atom_site_fract_y
 _atom_site_fract_z
 _atom_site_occupancy
  Sc  Sc0  1  0.85811172  0.14188825  0.43533354  1.0
  Sc  Sc1  1  0.14188817  0.85811172  0.56466642  1.0
  Sc  Sc2  1  0.85811179  0.14188820  0.06466646  1.0
  Sc  Sc3  1  0.14188807  0.85811179  0.93533356  1.0
  Ti  Ti4  1  0.82156755  0.17843212  0.75000033  1.0
  Ti  Ti5  1  0.17843236  0.82156792  0.24999967  1.0
  O  O6  1  0.69999780  0.30000210  0.58373935  1.0
  O  O7  1  0.30000213  0.69999785  0.41626073  1.0
  O  O8  1  0.30000228  0.69999770  0.08373921  1.0
  O  O9  1  0.69999762  0.30000227  0.91626071  1.0
  O  O10  1  0.95120968  0.04879003  0.62069743  1.0
  O  O11  1  0.04879017  0.95120997  0.37930267  1.0
  O  O12  1  0.26253275  0.73746714  0.75000007  1.0
  O  O13  1  0.73746706  0.26253292  0.24999993  1.0
  O  O14  1  0.95120945  0.04879017  0.87930259  1.0
  O  O15  1  0.04879040  0.95120985  0.12069732  1.0
