# generated using pymatgen
data_ScAlO3
_symmetry_space_group_name_H-M   'P 1'
_cell_length_a   3.26976769
_cell_length_b   3.26976741
_cell_length_c   11.71519417
_cell_angle_alpha   90.00000217
_cell_angle_beta   89.99999866
_cell_angle_gamma   120.00004347
_symmetry_Int_Tables_number   1
_chemical_formula_structural   ScAlO3
_chemical_formula_sum   'Sc2 Al2 O6'
_cell_volume   108.47101187
_cell_formula_units_Z   2
loop_
 _symmetry_equiv_pos_site_id
 _symmetry_equiv_pos_as_xyz
  1  'x, y, z'
loop_
 _atom_site_type_symbol
 _atom_site_label
 _atom_site_symmetry_multiplicity
 _atom_site_fract_x
 _atom_site_fract_y
 _atom_site_fract_z
 _atom_site_occupancy
  Sc  Sc0  1  0.00000003  0.00000022  0.99999999  1.0
  Sc  Sc1  1  0.00000111  0.00000003  0.50000005  1.0
  Al  Al2  1  0.66666667  0.33333333  0.24999998  1.0
  Al  Al3  1  0.33333333  0.66666667  0.75000003  1.0
  O  O4  1  0.99999977  0.00000019  0.25000001  1.0
  O  O5  1  0.00000009  0.99999971  0.74999996  1.0
  O  O6  1  0.66666667  0.33333333  0.41185597  1.0
  O  O7  1  0.66666667  0.33333333  0.08814408  1.0
  O  O8  1  0.33333333  0.66666667  0.58814394  1.0
  O  O9  1  0.33333333  0.66666667  0.91185599  1.0
