# generated using pymatgen
data_ScBO3
_symmetry_space_group_name_H-M   'P 1'
_cell_length_a   5.87748695
_cell_length_b   5.87748699
_cell_length_c   5.87748765
_cell_angle_alpha   48.60770460
_cell_angle_beta   48.60771004
_cell_angle_gamma   48.60771918
_symmetry_Int_Tables_number   1
_chemical_formula_structural   ScBO3
_chemical_formula_sum   'Sc2 B2 O6'
_cell_volume   104.82745682
_cell_formula_units_Z   2
loop_
 _symmetry_equiv_pos_site_id
 _symmetry_equiv_pos_as_xyz
  1  'x, y, z'
loop_
 _atom_site_type_symbol
 _atom_site_label
 _atom_site_symmetry_multiplicity
 _atom_site_fract_x
 _atom_site_fract_y
 _atom_site_fract_z
 _atom_site_occupancy
  Sc  Sc0  1  0.50000040  0.49999990  0.49999982  1.0
  Sc  Sc1  1  0.00000014  0.00000213  0.99999740  1.0
  B  B2  1  0.74999978  0.74999997  0.75000025  1.0
  B  B3  1  0.24999989  0.24999984  0.25000031  1.0
  O  O4  1  0.03878041  0.46121926  0.75000044  1.0
  O  O5  1  0.46121935  0.74999981  0.03878090  1.0
  O  O6  1  0.24999997  0.96121912  0.53878088  1.0
  O  O7  1  0.96121967  0.53878015  0.25000035  1.0
  O  O8  1  0.53878044  0.24999961  0.96121997  1.0
  O  O9  1  0.74999995  0.03878021  0.46121968  1.0
