# generated using pymatgen
data_ScGaN2
_symmetry_space_group_name_H-M   'P 1'
_cell_length_a   3.37123244
_cell_length_b   3.37123185
_cell_length_c   4.74002446
_cell_angle_alpha   90.00000058
_cell_angle_beta   89.99999901
_cell_angle_gamma   90.00002073
_symmetry_Int_Tables_number   1
_chemical_formula_structural   ScGaN2
_chemical_formula_sum   'Sc1 Ga1 N2'
_cell_volume   53.87135526
_cell_formula_units_Z   1
loop_
 _symmetry_equiv_pos_site_id
 _symmetry_equiv_pos_as_xyz
  1  'x, y, z'
loop_
 _atom_site_type_symbol
 _atom_site_label
 _atom_site_symmetry_multiplicity
 _atom_site_fract_x
 _atom_site_fract_y
 _atom_site_fract_z
 _atom_site_occupancy
  Sc  Sc0  1  0.49999997  0.49999994  0.50000003  1.0
  Ga  Ga1  1  0.00000005  0.99999999  0.99999997  1.0
  N  N2  1  0.99999999  0.50000005  0.23471328  1.0
  N  N3  1  0.49999999  0.00000003  0.76528672  1.0
