# generated using pymatgen
data_ScGaO3
_symmetry_space_group_name_H-M   'P 1'
_cell_length_a   3.81162329
_cell_length_b   3.81162556
_cell_length_c   3.81162324
_cell_angle_alpha   89.99999970
_cell_angle_beta   89.99998737
_cell_angle_gamma   90.00000301
_symmetry_Int_Tables_number   1
_chemical_formula_structural   ScGaO3
_chemical_formula_sum   'Sc1 Ga1 O3'
_cell_volume   55.37709490
_cell_formula_units_Z   1
loop_
 _symmetry_equiv_pos_site_id
 _symmetry_equiv_pos_as_xyz
  1  'x, y, z'
loop_
 _atom_site_type_symbol
 _atom_site_label
 _atom_site_symmetry_multiplicity
 _atom_site_fract_x
 _atom_site_fract_y
 _atom_site_fract_z
 _atom_site_occupancy
  Sc  Sc0  1  0.00000035  0.99999985  0.99999984  1.0
  Ga  Ga1  1  0.49999998  0.49999995  0.50000007  1.0
  O  O2  1  0.49999981  0.50000003  0.00000006  1.0
  O  O3  1  0.50000008  0.00000013  0.49999979  1.0
  O  O4  1  0.99999978  0.50000004  0.50000025  1.0
