# generated using pymatgen
data_ScNbN2
_symmetry_space_group_name_H-M   'P 1'
_cell_length_a   5.33363638
_cell_length_b   5.33363638
_cell_length_c   5.33363638
_cell_angle_alpha   131.67259477
_cell_angle_beta   131.67259477
_cell_angle_gamma   70.74662197
_symmetry_Int_Tables_number   1
_chemical_formula_structural   ScNbN2
_chemical_formula_sum   'Sc2 Nb2 N4'
_cell_volume   82.92372981
_cell_formula_units_Z   2
loop_
 _symmetry_equiv_pos_site_id
 _symmetry_equiv_pos_as_xyz
  1  'x, y, z'
loop_
 _atom_type_symbol
 _atom_type_oxidation_number
  Sc3+  3.0
  Nb3+  3.0
  N3-  -3.0
loop_
 _atom_site_type_symbol
 _atom_site_label
 _atom_site_symmetry_multiplicity
 _atom_site_fract_x
 _atom_site_fract_y
 _atom_site_fract_z
 _atom_site_occupancy
  Sc3+  Sc0  1  0.00000000  0.00000000  0.00000000  1.0
  Sc3+  Sc1  1  0.75000000  0.25000000  0.50000000  1.0
  Nb3+  Nb2  1  0.25000000  0.75000000  0.50000000  1.0
  Nb3+  Nb3  1  0.50000000  0.50000000  0.00000000  1.0
  N3-  N4  1  0.75714500  0.75714500  0.00000000  1.0
  N3-  N5  1  0.99285500  0.49285500  0.50000000  1.0
  N3-  N6  1  0.50714500  0.00714500  0.50000000  1.0
  N3-  N7  1  0.24285500  0.24285500  0.00000000  1.0
