# generated using pymatgen
data_ScSbO4
_symmetry_space_group_name_H-M   'P 1'
_cell_length_a   4.85413259
_cell_length_b   4.85413295
_cell_length_c   3.18729585
_cell_angle_alpha   89.99999675
_cell_angle_beta   89.99999866
_cell_angle_gamma   92.60254277
_symmetry_Int_Tables_number   1
_chemical_formula_structural   ScSbO4
_chemical_formula_sum   'Sc1 Sb1 O4'
_cell_volume   75.02353047
_cell_formula_units_Z   1
loop_
 _symmetry_equiv_pos_site_id
 _symmetry_equiv_pos_as_xyz
  1  'x, y, z'
loop_
 _atom_site_type_symbol
 _atom_site_label
 _atom_site_symmetry_multiplicity
 _atom_site_fract_x
 _atom_site_fract_y
 _atom_site_fract_z
 _atom_site_occupancy
  Sc  Sc0  1  0.50000008  0.49999984  0.50000004  1.0
  Sb  Sb1  1  0.99999955  0.99999958  0.99999994  1.0
  O  O2  1  0.29648983  0.29648989  0.00000017  1.0
  O  O3  1  0.18744807  0.81255263  0.49999998  1.0
  O  O4  1  0.81255269  0.18744813  0.49999993  1.0
  O  O5  1  0.70350978  0.70350993  0.99999993  1.0
