# generated using pymatgen
data_Si3GeO8
_symmetry_space_group_name_H-M   'P 1'
_cell_length_a   4.26676754
_cell_length_b   4.26676947
_cell_length_c   7.22728447
_cell_angle_alpha   107.16650764
_cell_angle_beta   107.16675093
_cell_angle_gamma   90.00048784
_symmetry_Int_Tables_number   1
_chemical_formula_structural   Si3GeO8
_chemical_formula_sum   'Si3 Ge1 O8'
_cell_volume   119.56463588
_cell_formula_units_Z   1
loop_
 _symmetry_equiv_pos_site_id
 _symmetry_equiv_pos_as_xyz
  1  'x, y, z'
loop_
 _atom_site_type_symbol
 _atom_site_label
 _atom_site_symmetry_multiplicity
 _atom_site_fract_x
 _atom_site_fract_y
 _atom_site_fract_z
 _atom_site_occupancy
  Si  Si0  1  0.49998567  0.49998446  0.00003185  1.0
  Si  Si1  1  0.25000671  0.75000824  0.49998486  1.0
  Si  Si2  1  0.75000685  0.25000803  0.49998478  1.0
  Ge  Ge3  1  0.99999757  0.99999604  0.00000901  1.0
  O  O4  1  0.56409309  0.56409313  0.61307992  1.0
  O  O5  1  0.95098618  0.43590391  0.38690469  1.0
  O  O6  1  0.43590232  0.95098748  0.38690449  1.0
  O  O7  1  0.04900263  0.04900276  0.61307783  1.0
  O  O8  1  0.32676131  0.32676000  0.12887762  1.0
  O  O9  1  0.19786234  0.67325407  0.87112918  1.0
  O  O10  1  0.67325450  0.19786240  0.87112956  1.0
  O  O11  1  0.80213882  0.80213747  0.12888721  1.0
