# generated using pymatgen
data_SiGeO4
_symmetry_space_group_name_H-M   'P 1'
_cell_length_a   4.35245950
_cell_length_b   4.35198342
_cell_length_c   7.17165636
_cell_angle_alpha   107.65245343
_cell_angle_beta   107.65336580
_cell_angle_gamma   90.02993545
_symmetry_Int_Tables_number   1
_chemical_formula_structural   SiGeO4
_chemical_formula_sum   'Si2 Ge2 O8'
_cell_volume   122.71054148
_cell_formula_units_Z   2
loop_
 _symmetry_equiv_pos_site_id
 _symmetry_equiv_pos_as_xyz
  1  'x, y, z'
loop_
 _atom_site_type_symbol
 _atom_site_label
 _atom_site_symmetry_multiplicity
 _atom_site_fract_x
 _atom_site_fract_y
 _atom_site_fract_z
 _atom_site_occupancy
  Si  Si0  1  0.62507817  0.87501458  0.25009920  1.0
  Si  Si1  1  0.37492200  0.12498558  0.74990112  1.0
  Ge  Ge2  1  0.12526313  0.37510044  0.25039694  1.0
  Ge  Ge3  1  0.87473665  0.62489934  0.74960263  1.0
  O  O4  1  0.31503268  0.58377201  0.12428512  1.0
  O  O5  1  0.54011556  0.81495519  0.62394302  1.0
  O  O6  1  0.08384326  0.30911023  0.62399742  1.0
  O  O7  1  0.80923015  0.04050050  0.12428781  1.0
  O  O8  1  0.19076962  0.95949942  0.87571222  1.0
  O  O9  1  0.91615683  0.69088952  0.37600261  1.0
  O  O10  1  0.45988436  0.18504508  0.37605701  1.0
  O  O11  1  0.68496757  0.41622811  0.87571491  1.0
