# generated using pymatgen
data_SiMoO4
_symmetry_space_group_name_H-M   'P 1'
_cell_length_a   6.18235123
_cell_length_b   6.18237740
_cell_length_c   6.18228717
_cell_angle_alpha   134.55437361
_cell_angle_beta   134.55421653
_cell_angle_gamma   66.22295308
_symmetry_Int_Tables_number   1
_chemical_formula_structural   SiMoO4
_chemical_formula_sum   'Si2 Mo2 O8'
_cell_volume   118.12742291
_cell_formula_units_Z   2
loop_
 _symmetry_equiv_pos_site_id
 _symmetry_equiv_pos_as_xyz
  1  'x, y, z'
loop_
 _atom_site_type_symbol
 _atom_site_label
 _atom_site_symmetry_multiplicity
 _atom_site_fract_x
 _atom_site_fract_y
 _atom_site_fract_z
 _atom_site_occupancy
  Si  Si0  1  0.00000947  0.00000510  0.00001230  1.0
  Si  Si1  1  0.74999039  0.24999439  0.49998705  1.0
  Mo  Mo2  1  0.50002789  0.49998906  0.00001937  1.0
  Mo  Mo3  1  0.24997108  0.75000819  0.49997688  1.0
  O  O4  1  0.82865454  0.42056629  0.91865020  1.0
  O  O5  1  0.17056429  0.75191249  0.09191039  1.0
  O  O6  1  0.66001553  0.07866406  0.90809970  1.0
  O  O7  1  0.50191264  0.91001228  0.08135160  1.0
  O  O8  1  0.24808742  0.33998814  0.41864859  1.0
  O  O9  1  0.08998540  0.17133753  0.59190230  1.0
  O  O10  1  0.57943614  0.49808860  0.40809164  1.0
  O  O11  1  0.92134521  0.82943387  0.58134999  1.0
