# generated using pymatgen
data_SiNiN2
_symmetry_space_group_name_H-M   'P 1'
_cell_length_a   2.81548110
_cell_length_b   2.81548082
_cell_length_c   5.23130517
_cell_angle_alpha   74.43421289
_cell_angle_beta   74.43417846
_cell_angle_gamma   60.00880678
_symmetry_Int_Tables_number   1
_chemical_formula_structural   SiNiN2
_chemical_formula_sum   'Si1 Ni1 N2'
_cell_volume   34.14787598
_cell_formula_units_Z   1
loop_
 _symmetry_equiv_pos_site_id
 _symmetry_equiv_pos_as_xyz
  1  'x, y, z'
loop_
 _atom_site_type_symbol
 _atom_site_label
 _atom_site_symmetry_multiplicity
 _atom_site_fract_x
 _atom_site_fract_y
 _atom_site_fract_z
 _atom_site_occupancy
  Si  Si0  1  0.50000000  0.49999999  0.50000001  1.0
  Ni  Ni1  1  0.99999997  0.00000002  0.00000004  1.0
  N  N2  1  0.76478151  0.76478220  0.70610163  1.0
  N  N3  1  0.23521852  0.23521779  0.29389832  1.0
