# generated using pymatgen
data_SiPdS3
_symmetry_space_group_name_H-M   'P 1'
_cell_length_a   3.59827600
_cell_length_b   3.59827600
_cell_length_c   3.59827600
_cell_angle_alpha   90.00000000
_cell_angle_beta   90.00000000
_cell_angle_gamma   90.00000000
_symmetry_Int_Tables_number   1
_chemical_formula_structural   SiPdS3
_chemical_formula_sum   'Si1 Pd1 S3'
_cell_volume   46.58900297
_cell_formula_units_Z   1
loop_
 _symmetry_equiv_pos_site_id
 _symmetry_equiv_pos_as_xyz
  1  'x, y, z'
loop_
 _atom_type_symbol
 _atom_type_oxidation_number
  Si4+  4.0
  Pd2+  2.0
  S2-  -2.0
loop_
 _atom_site_type_symbol
 _atom_site_label
 _atom_site_symmetry_multiplicity
 _atom_site_fract_x
 _atom_site_fract_y
 _atom_site_fract_z
 _atom_site_occupancy
  Si4+  Si0  1  0.50000000  0.50000000  0.50000000  1.0
  Pd2+  Pd1  1  0.00000000  0.00000000  0.00000000  1.0
  S2-  S2  1  0.50000000  0.50000000  0.00000000  1.0
  S2-  S3  1  0.50000000  0.00000000  0.50000000  1.0
  S2-  S4  1  0.00000000  0.50000000  0.50000000  1.0
