# generated using pymatgen
data_SiPN3
_symmetry_space_group_name_H-M   'P 1'
_cell_length_a   4.72946379
_cell_length_b   4.72946383
_cell_length_c   2.75157159
_cell_angle_alpha   90.00000074
_cell_angle_beta   90.00000001
_cell_angle_gamma   114.06590712
_symmetry_Int_Tables_number   1
_chemical_formula_structural   SiPN3
_chemical_formula_sum   'Si1 P1 N3'
_cell_volume   56.19685693
_cell_formula_units_Z   1
loop_
 _symmetry_equiv_pos_site_id
 _symmetry_equiv_pos_as_xyz
  1  'x, y, z'
loop_
 _atom_site_type_symbol
 _atom_site_label
 _atom_site_symmetry_multiplicity
 _atom_site_fract_x
 _atom_site_fract_y
 _atom_site_fract_z
 _atom_site_occupancy
  Si  Si0  1  0.42699354  0.57300645  0.00000000  1.0
  P  P1  1  0.07277394  0.92722607  0.49999999  1.0
  N  N2  1  0.69537493  0.76147111  0.50000000  1.0
  N  N3  1  0.19437872  0.80562129  0.99999999  1.0
  N  N4  1  0.23852888  0.30462507  0.50000001  1.0
