# generated using pymatgen
data_SiSeO4
_symmetry_space_group_name_H-M   'P 1'
_cell_length_a   6.29642184
_cell_length_b   6.29643446
_cell_length_c   6.29643247
_cell_angle_alpha   135.70996982
_cell_angle_beta   135.70991796
_cell_angle_gamma   64.42912612
_symmetry_Int_Tables_number   1
_chemical_formula_structural   SiSeO4
_chemical_formula_sum   'Si2 Se2 O8'
_cell_volume   120.03718645
_cell_formula_units_Z   2
loop_
 _symmetry_equiv_pos_site_id
 _symmetry_equiv_pos_as_xyz
  1  'x, y, z'
loop_
 _atom_site_type_symbol
 _atom_site_label
 _atom_site_symmetry_multiplicity
 _atom_site_fract_x
 _atom_site_fract_y
 _atom_site_fract_z
 _atom_site_occupancy
  Si  Si0  1  0.99999884  0.99999999  0.99999856  1.0
  Si  Si1  1  0.75000116  0.25000000  0.50000144  1.0
  Se  Se2  1  0.49999879  0.49999986  0.99999843  1.0
  Se  Se3  1  0.25000122  0.75000017  0.50000157  1.0
  O  O4  1  0.83564203  0.43210600  0.92484997  1.0
  O  O5  1  0.18210713  0.75725580  0.09646434  1.0
  O  O6  1  0.66079135  0.08564143  0.90353502  1.0
  O  O7  1  0.50725641  0.91079117  0.07514907  1.0
  O  O8  1  0.24274359  0.33920882  0.42485093  1.0
  O  O9  1  0.08920864  0.16435856  0.59646498  1.0
  O  O10  1  0.56789287  0.49274420  0.40353566  1.0
  O  O11  1  0.91435797  0.81789400  0.57515004  1.0
