# generated using pymatgen
data_Sm2Ti2O7
_symmetry_space_group_name_H-M   'P 1'
_cell_length_a   7.33335288
_cell_length_b   7.33335351
_cell_length_c   7.33335342
_cell_angle_alpha   59.99996166
_cell_angle_beta   59.99995738
_cell_angle_gamma   59.99996139
_symmetry_Int_Tables_number   1
_chemical_formula_structural   Sm2Ti2O7
_chemical_formula_sum   'Sm4 Ti4 O14'
_cell_volume   278.86398557
_cell_formula_units_Z   2
loop_
 _symmetry_equiv_pos_site_id
 _symmetry_equiv_pos_as_xyz
  1  'x, y, z'
loop_
 _atom_site_type_symbol
 _atom_site_label
 _atom_site_symmetry_multiplicity
 _atom_site_fract_x
 _atom_site_fract_y
 _atom_site_fract_z
 _atom_site_occupancy
  Sm  Sm0  1  0.12500000  0.12499998  0.62500002  1.0
  Sm  Sm1  1  0.12500001  0.62499998  0.12500001  1.0
  Sm  Sm2  1  0.62500000  0.12500001  0.12499999  1.0
  Sm  Sm3  1  0.12500000  0.12500000  0.12499999  1.0
  Ti  Ti4  1  0.62500000  0.62500000  0.12499998  1.0
  Ti  Ti5  1  0.62499999  0.12500002  0.62500000  1.0
  Ti  Ti6  1  0.12500001  0.62500000  0.62500000  1.0
  Ti  Ti7  1  0.62500000  0.62500000  0.62499999  1.0
  O  O8  1  0.25000001  0.24999993  0.24999998  1.0
  O  O9  1  0.99999995  0.00000006  0.00000000  1.0
  O  O10  1  0.54804341  0.95195662  0.54804339  1.0
  O  O11  1  0.29804342  0.70195663  0.29804338  1.0
  O  O12  1  0.54804340  0.54804342  0.95195662  1.0
  O  O13  1  0.95195661  0.54804342  0.54804338  1.0
  O  O14  1  0.54804335  0.95195661  0.95195662  1.0
  O  O15  1  0.95195659  0.95195663  0.54804337  1.0
  O  O16  1  0.95195658  0.54804337  0.95195663  1.0
  O  O17  1  0.70195664  0.29804341  0.29804339  1.0
  O  O18  1  0.29804340  0.70195658  0.70195660  1.0
  O  O19  1  0.70195663  0.29804337  0.70195660  1.0
  O  O20  1  0.29804340  0.29804337  0.70195667  1.0
  O  O21  1  0.70195661  0.70195659  0.29804337  1.0
