# generated using pymatgen
data_Sm2Zr2O7
_symmetry_space_group_name_H-M   'P 1'
_cell_length_a   7.59838739
_cell_length_b   7.59838740
_cell_length_c   7.59838371
_cell_angle_alpha   60.00002800
_cell_angle_beta   60.00002976
_cell_angle_gamma   59.99995958
_symmetry_Int_Tables_number   1
_chemical_formula_structural   Sm2Zr2O7
_chemical_formula_sum   'Sm4 Zr4 O14'
_cell_volume   310.20525011
_cell_formula_units_Z   2
loop_
 _symmetry_equiv_pos_site_id
 _symmetry_equiv_pos_as_xyz
  1  'x, y, z'
loop_
 _atom_site_type_symbol
 _atom_site_label
 _atom_site_symmetry_multiplicity
 _atom_site_fract_x
 _atom_site_fract_y
 _atom_site_fract_z
 _atom_site_occupancy
  Sm  Sm0  1  0.12499991  0.12499991  0.12499996  1.0
  Sm  Sm1  1  0.62500015  0.12500013  0.12499955  1.0
  Sm  Sm2  1  0.12499977  0.12500005  0.62500012  1.0
  Sm  Sm3  1  0.12500024  0.62500023  0.12499984  1.0
  Zr  Zr4  1  0.62499993  0.62500000  0.12500013  1.0
  Zr  Zr5  1  0.62499999  0.62500007  0.62499993  1.0
  Zr  Zr6  1  0.62499990  0.12499991  0.62500017  1.0
  Zr  Zr7  1  0.12500012  0.62499995  0.62499988  1.0
  O  O8  1  0.71178927  0.71178901  0.28821071  1.0
  O  O9  1  0.96178524  0.53821481  0.53821494  1.0
  O  O10  1  0.24999992  0.25000002  0.24999986  1.0
  O  O11  1  0.96178485  0.53821500  0.96178496  1.0
  O  O12  1  0.96178898  0.96178903  0.53821118  1.0
  O  O13  1  0.53821493  0.96178521  0.53821478  1.0
  O  O14  1  0.71178476  0.28821503  0.28821500  1.0
  O  O15  1  0.53821538  0.96178478  0.96178498  1.0
  O  O16  1  0.28821101  0.28821095  0.71178898  1.0
  O  O17  1  0.71178492  0.28821482  0.71178531  1.0
  O  O18  1  0.28821518  0.71178491  0.28821508  1.0
  O  O19  1  0.00000007  0.00000010  0.00000000  1.0
  O  O20  1  0.28821464  0.71178509  0.71178541  1.0
  O  O21  1  0.53821087  0.53821100  0.96178924  1.0
