# generated using pymatgen
data_SmAlO3
_symmetry_space_group_name_H-M   'P 1'
_cell_length_a   5.35296461
_cell_length_b   5.40152310
_cell_length_c   7.58342643
_cell_angle_alpha   89.99995947
_cell_angle_beta   90.00016939
_cell_angle_gamma   90.00005643
_symmetry_Int_Tables_number   1
_chemical_formula_structural   SmAlO3
_chemical_formula_sum   'Sm4 Al4 O12'
_cell_volume   219.26842027
_cell_formula_units_Z   4
loop_
 _symmetry_equiv_pos_site_id
 _symmetry_equiv_pos_as_xyz
  1  'x, y, z'
loop_
 _atom_site_type_symbol
 _atom_site_label
 _atom_site_symmetry_multiplicity
 _atom_site_fract_x
 _atom_site_fract_y
 _atom_site_fract_z
 _atom_site_occupancy
  Sm  Sm0  1  0.00892474  0.96316212  0.75000125  1.0
  Sm  Sm1  1  0.50892343  0.53683918  0.24999894  1.0
  Sm  Sm2  1  0.49107405  0.46315851  0.75000067  1.0
  Sm  Sm3  1  0.99107540  0.03684056  0.24999913  1.0
  Al  Al4  1  0.49999918  0.00000290  0.50000144  1.0
  Al  Al5  1  0.00000216  0.49999873  0.49999989  1.0
  Al  Al6  1  0.00000301  0.49999988  0.00000031  1.0
  Al  Al7  1  0.49999961  0.00000173  0.99999894  1.0
  O  O8  1  0.71845400  0.28212615  0.46208968  1.0
  O  O9  1  0.21845586  0.21787623  0.53791014  1.0
  O  O10  1  0.78154376  0.78212365  0.03791080  1.0
  O  O11  1  0.28154522  0.71787299  0.96208914  1.0
  O  O12  1  0.28154629  0.71787258  0.53791028  1.0
  O  O13  1  0.78154268  0.78212311  0.46209018  1.0
  O  O14  1  0.21845465  0.21787563  0.96208925  1.0
  O  O15  1  0.71845469  0.28212633  0.03791083  1.0
  O  O16  1  0.07091141  0.48676441  0.25000008  1.0
  O  O17  1  0.57091016  0.01323522  0.74999930  1.0
  O  O18  1  0.42908989  0.98676346  0.25000025  1.0
  O  O19  1  0.92908982  0.51323662  0.74999952  1.0
