# generated using pymatgen
data_SmGaO3
_symmetry_space_group_name_H-M   'P 1'
_cell_length_a   5.65972056
_cell_length_b   5.44483342
_cell_length_c   7.78524230
_cell_angle_alpha   90.00000244
_cell_angle_beta   89.99999489
_cell_angle_gamma   89.99999536
_symmetry_Int_Tables_number   1
_chemical_formula_structural   SmGaO3
_chemical_formula_sum   'Sm4 Ga4 O12'
_cell_volume   239.91186133
_cell_formula_units_Z   4
loop_
 _symmetry_equiv_pos_site_id
 _symmetry_equiv_pos_as_xyz
  1  'x, y, z'
loop_
 _atom_site_type_symbol
 _atom_site_label
 _atom_site_symmetry_multiplicity
 _atom_site_fract_x
 _atom_site_fract_y
 _atom_site_fract_z
 _atom_site_occupancy
  Sm  Sm0  1  0.06012869  0.98432061  0.25000010  1.0
  Sm  Sm1  1  0.56012899  0.51567934  0.25000009  1.0
  Sm  Sm2  1  0.43987127  0.48432062  0.74999991  1.0
  Sm  Sm3  1  0.93987102  0.01567937  0.74999989  1.0
  Ga  Ga4  1  0.50000017  0.00000006  0.50000013  1.0
  Ga  Ga5  1  0.99999985  0.49999999  0.00000003  1.0
  Ga  Ga6  1  0.99999984  0.49999999  0.49999998  1.0
  Ga  Ga7  1  0.50000016  0.00000007  0.99999986  1.0
  O  O8  1  0.70133726  0.29817147  0.55037080  1.0
  O  O9  1  0.20133741  0.20182857  0.94962923  1.0
  O  O10  1  0.79866282  0.79817145  0.44962913  1.0
  O  O11  1  0.29866266  0.70182851  0.05037075  1.0
  O  O12  1  0.29866271  0.70182853  0.44962917  1.0
  O  O13  1  0.79866264  0.79817145  0.05037083  1.0
  O  O14  1  0.20133730  0.20182858  0.55037090  1.0
  O  O15  1  0.70133736  0.29817142  0.94962921  1.0
  O  O16  1  0.52917523  0.90323381  0.75000006  1.0
  O  O17  1  0.02917518  0.59676615  0.75000008  1.0
  O  O18  1  0.97082479  0.40323382  0.24999993  1.0
  O  O19  1  0.47082464  0.09676621  0.24999991  1.0
