# generated using pymatgen
data_SmInO3
_symmetry_space_group_name_H-M   'P 1'
_cell_length_a   5.94808989
_cell_length_b   5.66476017
_cell_length_c   8.26967712
_cell_angle_alpha   90.00000315
_cell_angle_beta   90.00000098
_cell_angle_gamma   90.00000049
_symmetry_Int_Tables_number   1
_chemical_formula_structural   SmInO3
_chemical_formula_sum   'Sm4 In4 O12'
_cell_volume   278.64265802
_cell_formula_units_Z   4
loop_
 _symmetry_equiv_pos_site_id
 _symmetry_equiv_pos_as_xyz
  1  'x, y, z'
loop_
 _atom_site_type_symbol
 _atom_site_label
 _atom_site_symmetry_multiplicity
 _atom_site_fract_x
 _atom_site_fract_y
 _atom_site_fract_z
 _atom_site_occupancy
  Sm  Sm0  1  0.06282396  0.97830688  0.25000008  1.0
  Sm  Sm1  1  0.56282392  0.52169313  0.25000003  1.0
  Sm  Sm2  1  0.43717607  0.47830688  0.74999995  1.0
  Sm  Sm3  1  0.93717604  0.02169310  0.74999993  1.0
  In  In4  1  0.50000000  0.00000001  0.50000000  1.0
  In  In5  1  0.00000000  0.50000000  0.99999999  1.0
  In  In6  1  0.00000000  0.49999999  0.50000000  1.0
  In  In7  1  0.50000000  0.00000002  0.00000000  1.0
  O  O8  1  0.69441527  0.30863470  0.57064279  1.0
  O  O9  1  0.19441534  0.19136542  0.92935701  1.0
  O  O10  1  0.80558480  0.80863471  0.42935723  1.0
  O  O11  1  0.30558468  0.69136539  0.07064299  1.0
  O  O12  1  0.30558476  0.69136527  0.42935722  1.0
  O  O13  1  0.80558466  0.80863459  0.07064298  1.0
  O  O14  1  0.19441520  0.19136525  0.57064277  1.0
  O  O15  1  0.69441529  0.30863466  0.92935703  1.0
  O  O16  1  0.56189059  0.86416593  0.75000002  1.0
  O  O17  1  0.06189058  0.63583408  0.75000001  1.0
  O  O18  1  0.93810944  0.36416593  0.24999999  1.0
  O  O19  1  0.43810943  0.13583406  0.24999998  1.0
