# generated using pymatgen
data_SmInO3
_symmetry_space_group_name_H-M   'P 1'
_cell_length_a   4.16103212
_cell_length_b   4.16103350
_cell_length_c   4.16103258
_cell_angle_alpha   89.99999670
_cell_angle_beta   89.99999367
_cell_angle_gamma   90.00000110
_symmetry_Int_Tables_number   1
_chemical_formula_structural   SmInO3
_chemical_formula_sum   'Sm1 In1 O3'
_cell_volume   72.04492552
_cell_formula_units_Z   1
loop_
 _symmetry_equiv_pos_site_id
 _symmetry_equiv_pos_as_xyz
  1  'x, y, z'
loop_
 _atom_site_type_symbol
 _atom_site_label
 _atom_site_symmetry_multiplicity
 _atom_site_fract_x
 _atom_site_fract_y
 _atom_site_fract_z
 _atom_site_occupancy
  Sm  Sm0  1  0.00000001  0.00000000  0.00000000  1.0
  In  In1  1  0.49999997  0.50000001  0.50000000  1.0
  O  O2  1  0.50000001  0.49999999  0.00000001  1.0
  O  O3  1  0.50000001  0.99999999  0.50000000  1.0
  O  O4  1  0.00000001  0.50000001  0.49999999  1.0
