# generated using pymatgen
data_SmScO3
_symmetry_space_group_name_H-M   'P 1'
_cell_length_a   4.06086879
_cell_length_b   4.06086895
_cell_length_c   4.06086844
_cell_angle_alpha   90.00000423
_cell_angle_beta   90.00000593
_cell_angle_gamma   89.99999605
_symmetry_Int_Tables_number   1
_chemical_formula_structural   SmScO3
_chemical_formula_sum   'Sm1 Sc1 O3'
_cell_volume   66.96638442
_cell_formula_units_Z   1
loop_
 _symmetry_equiv_pos_site_id
 _symmetry_equiv_pos_as_xyz
  1  'x, y, z'
loop_
 _atom_site_type_symbol
 _atom_site_label
 _atom_site_symmetry_multiplicity
 _atom_site_fract_x
 _atom_site_fract_y
 _atom_site_fract_z
 _atom_site_occupancy
  Sm  Sm0  1  0.99999995  0.99999997  0.99999994  1.0
  Sc  Sc1  1  0.50000015  0.50000004  0.50000026  1.0
  O  O2  1  0.49999995  0.49999996  0.99999993  1.0
  O  O3  1  0.49999997  0.00000002  0.49999994  1.0
  O  O4  1  0.99999998  0.50000002  0.49999992  1.0
