# generated using pymatgen
data_SmScO3
_symmetry_space_group_name_H-M   'P 1'
_cell_length_a   5.82917312
_cell_length_b   5.59165432
_cell_length_c   8.07819979
_cell_angle_alpha   89.99999910
_cell_angle_beta   90.00001162
_cell_angle_gamma   89.99999696
_symmetry_Int_Tables_number   1
_chemical_formula_structural   SmScO3
_chemical_formula_sum   'Sm4 Sc4 O12'
_cell_volume   263.30666881
_cell_formula_units_Z   4
loop_
 _symmetry_equiv_pos_site_id
 _symmetry_equiv_pos_as_xyz
  1  'x, y, z'
loop_
 _atom_site_type_symbol
 _atom_site_label
 _atom_site_symmetry_multiplicity
 _atom_site_fract_x
 _atom_site_fract_y
 _atom_site_fract_z
 _atom_site_occupancy
  Sm  Sm0  1  0.05846701  0.98255691  0.24999990  1.0
  Sm  Sm1  1  0.55846747  0.51744300  0.24999989  1.0
  Sm  Sm2  1  0.44153289  0.48255689  0.75000011  1.0
  Sm  Sm3  1  0.94153246  0.01744304  0.75000009  1.0
  Sc  Sc4  1  0.50000030  0.00000006  0.50000017  1.0
  Sc  Sc5  1  0.99999976  0.50000008  0.99999999  1.0
  Sc  Sc6  1  0.99999973  0.50000012  0.50000005  1.0
  Sc  Sc7  1  0.50000031  0.00000010  0.99999982  1.0
  O  O8  1  0.69758022  0.30388814  0.56259628  1.0
  O  O9  1  0.19758021  0.19611174  0.93740365  1.0
  O  O10  1  0.80241988  0.80388821  0.43740366  1.0
  O  O11  1  0.30241981  0.69611177  0.06259641  1.0
  O  O12  1  0.30241975  0.69611179  0.43740364  1.0
  O  O13  1  0.80241987  0.80388827  0.06259647  1.0
  O  O14  1  0.19758027  0.19611182  0.56259617  1.0
  O  O15  1  0.69758012  0.30388821  0.93740368  1.0
  O  O16  1  0.54776907  0.88137020  0.74999992  1.0
  O  O17  1  0.04776922  0.61862975  0.74999992  1.0
  O  O18  1  0.95223083  0.38137021  0.25000011  1.0
  O  O19  1  0.45223082  0.11862969  0.25000005  1.0
