# generated using pymatgen
data_SnGeO3
_symmetry_space_group_name_H-M   'P 1'
_cell_length_a   3.89164525
_cell_length_b   3.89164867
_cell_length_c   3.89164920
_cell_angle_alpha   90.00002473
_cell_angle_beta   89.99999264
_cell_angle_gamma   90.00003681
_symmetry_Int_Tables_number   1
_chemical_formula_structural   SnGeO3
_chemical_formula_sum   'Sn1 Ge1 O3'
_cell_volume   58.93870047
_cell_formula_units_Z   1
loop_
 _symmetry_equiv_pos_site_id
 _symmetry_equiv_pos_as_xyz
  1  'x, y, z'
loop_
 _atom_site_type_symbol
 _atom_site_label
 _atom_site_symmetry_multiplicity
 _atom_site_fract_x
 _atom_site_fract_y
 _atom_site_fract_z
 _atom_site_occupancy
  Sn  Sn0  1  0.00000001  0.00000004  0.00000007  1.0
  Ge  Ge1  1  0.49999999  0.49999995  0.50000009  1.0
  O  O2  1  0.50000002  0.50000016  0.99999989  1.0
  O  O3  1  0.49999991  0.00000011  0.49999996  1.0
  O  O4  1  0.00000006  0.49999975  0.50000001  1.0
