# generated using pymatgen
data_SnPbO3
_symmetry_space_group_name_H-M   'P 1'
_cell_length_a   4.13719831
_cell_length_b   4.13719760
_cell_length_c   4.13719777
_cell_angle_alpha   90.00000332
_cell_angle_beta   89.99999862
_cell_angle_gamma   90.00000526
_symmetry_Int_Tables_number   1
_chemical_formula_structural   SnPbO3
_chemical_formula_sum   'Sn1 Pb1 O3'
_cell_volume   70.81396054
_cell_formula_units_Z   1
loop_
 _symmetry_equiv_pos_site_id
 _symmetry_equiv_pos_as_xyz
  1  'x, y, z'
loop_
 _atom_site_type_symbol
 _atom_site_label
 _atom_site_symmetry_multiplicity
 _atom_site_fract_x
 _atom_site_fract_y
 _atom_site_fract_z
 _atom_site_occupancy
  Sn  Sn0  1  0.50000013  0.49999991  0.50000001  1.0
  Pb  Pb1  1  0.00000003  0.99999999  0.99999998  1.0
  O  O2  1  0.49999995  0.50000002  0.99999994  1.0
  O  O3  1  0.50000007  0.00000010  0.49999994  1.0
  O  O4  1  0.99999982  0.49999998  0.50000013  1.0
