# generated using pymatgen
data_SrTeO3
_symmetry_space_group_name_H-M   'P 1'
_cell_length_a   4.30157725
_cell_length_b   4.30157703
_cell_length_c   4.30157618
_cell_angle_alpha   89.99999853
_cell_angle_beta   90.00000067
_cell_angle_gamma   89.99999787
_symmetry_Int_Tables_number   1
_chemical_formula_structural   SrTeO3
_chemical_formula_sum   'Sr1 Te1 O3'
_cell_volume   79.59449828
_cell_formula_units_Z   1
loop_
 _symmetry_equiv_pos_site_id
 _symmetry_equiv_pos_as_xyz
  1  'x, y, z'
loop_
 _atom_site_type_symbol
 _atom_site_label
 _atom_site_symmetry_multiplicity
 _atom_site_fract_x
 _atom_site_fract_y
 _atom_site_fract_z
 _atom_site_occupancy
  Sr  Sr0  1  0.00000000  0.99999999  0.00000001  1.0
  Te  Te1  1  0.50000000  0.49999999  0.50000001  1.0
  O  O2  1  0.50000000  0.00000001  0.50000000  1.0
  O  O3  1  0.50000001  0.50000000  0.99999999  1.0
  O  O4  1  0.99999999  0.50000000  0.49999999  1.0
