# generated using pymatgen
data_Ta2FeO6
_symmetry_space_group_name_H-M   'P 1'
_cell_length_a   5.60995610
_cell_length_b   5.60995610
_cell_length_c   5.60995610
_cell_angle_alpha   60.00000000
_cell_angle_beta   60.00000000
_cell_angle_gamma   60.00000000
_symmetry_Int_Tables_number   1
_chemical_formula_structural   Ta2FeO6
_chemical_formula_sum   'Ta2 Fe1 O6'
_cell_volume   124.84276834
_cell_formula_units_Z   1
loop_
 _symmetry_equiv_pos_site_id
 _symmetry_equiv_pos_as_xyz
  1  'x, y, z'
loop_
 _atom_type_symbol
 _atom_type_oxidation_number
  Ta5+  5.0
  Fe2+  2.0
  O2-  -2.0
loop_
 _atom_site_type_symbol
 _atom_site_label
 _atom_site_symmetry_multiplicity
 _atom_site_fract_x
 _atom_site_fract_y
 _atom_site_fract_z
 _atom_site_occupancy
  Ta5+  Ta1  1  0.75000000  0.75000000  0.75000000  1.0
  Ta5+  Ta2  1  0.25000000  0.25000000  0.25000000  1.0
  Fe2+  Fe0  1  0.50000000  0.50000000  0.50000000  1.0
  O2-  O3  1  0.50000000  0.50000000  0.00000000  1.0
  O2-  O4  1  0.50000000  0.00000000  0.00000000  1.0
  O2-  O5  1  0.00000000  0.00000000  0.50000000  1.0
  O2-  O6  1  0.50000000  0.00000000  0.50000000  1.0
  O2-  O7  1  0.00000000  0.50000000  0.50000000  1.0
  O2-  O8  1  0.00000000  0.50000000  0.00000000  1.0
