# generated using pymatgen
data_TaAgN2
_symmetry_space_group_name_H-M   'P 1'
_cell_length_a   3.17473751
_cell_length_b   3.17473753
_cell_length_c   6.24596634
_cell_angle_alpha   75.27548873
_cell_angle_beta   75.27548262
_cell_angle_gamma   59.99977800
_symmetry_Int_Tables_number   1
_chemical_formula_structural   TaAgN2
_chemical_formula_sum   'Ta1 Ag1 N2'
_cell_volume   52.11771549
_cell_formula_units_Z   1
loop_
 _symmetry_equiv_pos_site_id
 _symmetry_equiv_pos_as_xyz
  1  'x, y, z'
loop_
 _atom_site_type_symbol
 _atom_site_label
 _atom_site_symmetry_multiplicity
 _atom_site_fract_x
 _atom_site_fract_y
 _atom_site_fract_z
 _atom_site_occupancy
  Ta  Ta0  1  0.50000007  0.49999992  0.50000000  1.0
  Ag  Ag1  1  0.99999994  0.00000008  0.00000001  1.0
  N  N2  1  0.77369710  0.77369717  0.67889215  1.0
  N  N3  1  0.22630289  0.22630282  0.32110784  1.0
