# generated using pymatgen
data_TaBO4
_symmetry_space_group_name_H-M   'P 1'
_cell_length_a   4.11920816
_cell_length_b   4.11921194
_cell_length_c   3.50450324
_cell_angle_alpha   89.99995182
_cell_angle_beta   89.99994699
_cell_angle_gamma   77.57655762
_symmetry_Int_Tables_number   1
_chemical_formula_structural   TaBO4
_chemical_formula_sum   'Ta1 B1 O4'
_cell_volume   58.07164089
_cell_formula_units_Z   1
loop_
 _symmetry_equiv_pos_site_id
 _symmetry_equiv_pos_as_xyz
  1  'x, y, z'
loop_
 _atom_site_type_symbol
 _atom_site_label
 _atom_site_symmetry_multiplicity
 _atom_site_fract_x
 _atom_site_fract_y
 _atom_site_fract_z
 _atom_site_occupancy
  Ta  Ta0  1  0.00001360  0.99998230  0.00003967  1.0
  B  B1  1  0.50001306  0.49997054  0.50025955  1.0
  O  O2  1  0.70103363  0.70105459  0.99988777  1.0
  O  O3  1  0.76456858  0.23543488  0.49996360  1.0
  O  O4  1  0.23541853  0.76458457  0.49996358  1.0
  O  O5  1  0.29895261  0.29897312  0.99988582  1.0
