# generated using pymatgen
data_TePN3
_symmetry_space_group_name_H-M   'P 1'
_cell_length_a   6.03928255
_cell_length_b   6.03928204
_cell_length_c   2.93914983
_cell_angle_alpha   90.00001063
_cell_angle_beta   89.99998953
_cell_angle_gamma   126.57379578
_symmetry_Int_Tables_number   1
_chemical_formula_structural   TePN3
_chemical_formula_sum   'Te1 P1 N3'
_cell_volume   86.09078048
_cell_formula_units_Z   1
loop_
 _symmetry_equiv_pos_site_id
 _symmetry_equiv_pos_as_xyz
  1  'x, y, z'
loop_
 _atom_site_type_symbol
 _atom_site_label
 _atom_site_symmetry_multiplicity
 _atom_site_fract_x
 _atom_site_fract_y
 _atom_site_fract_z
 _atom_site_occupancy
  Te  Te0  1  0.42491036  0.57508971  0.00000007  1.0
  P  P1  1  0.07520474  0.92479523  0.49999996  1.0
  N  N2  1  0.73362944  0.75228066  0.50000002  1.0
  N  N3  1  0.14658608  0.85341385  0.99999991  1.0
  N  N4  1  0.24771939  0.26637056  0.50000002  1.0
