# generated using pymatgen
data_ThNbN3
_symmetry_space_group_name_H-M   'P 1'
_cell_length_a   4.10290037
_cell_length_b   4.10290206
_cell_length_c   4.10288887
_cell_angle_alpha   90.00005530
_cell_angle_beta   89.99980394
_cell_angle_gamma   90.00001536
_symmetry_Int_Tables_number   1
_chemical_formula_structural   ThNbN3
_chemical_formula_sum   'Th1 Nb1 N3'
_cell_volume   69.06720401
_cell_formula_units_Z   1
loop_
 _symmetry_equiv_pos_site_id
 _symmetry_equiv_pos_as_xyz
  1  'x, y, z'
loop_
 _atom_site_type_symbol
 _atom_site_label
 _atom_site_symmetry_multiplicity
 _atom_site_fract_x
 _atom_site_fract_y
 _atom_site_fract_z
 _atom_site_occupancy
  Th  Th0  1  0.00000480  0.00000728  0.99998866  1.0
  Nb  Nb1  1  0.49999876  0.49999796  0.50000301  1.0
  N  N2  1  0.49999884  0.99999818  0.50000281  1.0
  N  N3  1  0.49999871  0.49999823  0.00000273  1.0
  N  N4  1  0.99999890  0.49999835  0.50000279  1.0
