# generated using pymatgen
data_Ti2Bi2O7
_symmetry_space_group_name_H-M   'P 1'
_cell_length_a   7.40836200
_cell_length_b   7.40836169
_cell_length_c   7.40836150
_cell_angle_alpha   59.99993707
_cell_angle_beta   59.99993649
_cell_angle_gamma   59.99993697
_symmetry_Int_Tables_number   1
_chemical_formula_structural   Ti2Bi2O7
_chemical_formula_sum   'Ti4 Bi4 O14'
_cell_volume   287.50865243
_cell_formula_units_Z   2
loop_
 _symmetry_equiv_pos_site_id
 _symmetry_equiv_pos_as_xyz
  1  'x, y, z'
loop_
 _atom_site_type_symbol
 _atom_site_label
 _atom_site_symmetry_multiplicity
 _atom_site_fract_x
 _atom_site_fract_y
 _atom_site_fract_z
 _atom_site_occupancy
  Ti  Ti0  1  0.62499999  0.62500001  0.12500004  1.0
  Ti  Ti1  1  0.62499998  0.12500000  0.62500002  1.0
  Ti  Ti2  1  0.12500003  0.62500000  0.62499999  1.0
  Ti  Ti3  1  0.62500009  0.62499996  0.62499997  1.0
  Bi  Bi4  1  0.12500003  0.12499996  0.62500001  1.0
  Bi  Bi5  1  0.12500004  0.62500000  0.12499996  1.0
  Bi  Bi6  1  0.62500001  0.12500001  0.12500000  1.0
  Bi  Bi7  1  0.12499999  0.12500002  0.12500000  1.0
  O  O8  1  0.24999993  0.24999988  0.25000001  1.0
  O  O9  1  0.00000006  0.00000013  0.00000004  1.0
  O  O10  1  0.55130318  0.94869681  0.55130315  1.0
  O  O11  1  0.30130302  0.69869681  0.30130311  1.0
  O  O12  1  0.55130314  0.55130319  0.94869671  1.0
  O  O13  1  0.94869676  0.55130319  0.55130312  1.0
  O  O14  1  0.55130313  0.94869705  0.94869685  1.0
  O  O15  1  0.94869689  0.94869699  0.55130309  1.0
  O  O16  1  0.94869700  0.55130314  0.94869691  1.0
  O  O17  1  0.69869687  0.30130297  0.30130313  1.0
  O  O18  1  0.30130321  0.69869681  0.69869685  1.0
  O  O19  1  0.69869680  0.30130321  0.69869685  1.0
  O  O20  1  0.30130305  0.30130301  0.69869690  1.0
  O  O21  1  0.69869681  0.69869683  0.30130329  1.0
