# generated using pymatgen
data_Ti2In2O7
_symmetry_space_group_name_H-M   'P 1'
_cell_length_a   7.16251631
_cell_length_b   7.16251631
_cell_length_c   7.16251687
_cell_angle_alpha   59.99992226
_cell_angle_beta   59.99992030
_cell_angle_gamma   59.99992407
_symmetry_Int_Tables_number   1
_chemical_formula_structural   Ti2In2O7
_chemical_formula_sum   'Ti4 In4 O14'
_cell_volume   259.82512323
_cell_formula_units_Z   2
loop_
 _symmetry_equiv_pos_site_id
 _symmetry_equiv_pos_as_xyz
  1  'x, y, z'
loop_
 _atom_site_type_symbol
 _atom_site_label
 _atom_site_symmetry_multiplicity
 _atom_site_fract_x
 _atom_site_fract_y
 _atom_site_fract_z
 _atom_site_occupancy
  Ti  Ti0  1  0.62499999  0.62499999  0.12500001  1.0
  Ti  Ti1  1  0.62500001  0.12499999  0.62500000  1.0
  Ti  Ti2  1  0.12499999  0.62500000  0.62500000  1.0
  Ti  Ti3  1  0.62499999  0.62500001  0.62499999  1.0
  In  In4  1  0.12500001  0.12500001  0.62500000  1.0
  In  In5  1  0.12499997  0.62500000  0.12500002  1.0
  In  In6  1  0.62500000  0.12499998  0.12500000  1.0
  In  In7  1  0.12500000  0.12500002  0.12499996  1.0
  O  O8  1  0.25000000  0.25000000  0.25000002  1.0
  O  O9  1  0.99999999  0.00000000  0.99999998  1.0
  O  O10  1  0.54245784  0.95754222  0.54245780  1.0
  O  O11  1  0.29245779  0.70754222  0.29245781  1.0
  O  O12  1  0.54245780  0.54245783  0.95754221  1.0
  O  O13  1  0.95754223  0.54245783  0.54245778  1.0
  O  O14  1  0.54245783  0.95754221  0.95754218  1.0
  O  O15  1  0.95754214  0.95754217  0.54245786  1.0
  O  O16  1  0.95754223  0.54245776  0.95754222  1.0
  O  O17  1  0.70754216  0.29245779  0.29245784  1.0
  O  O18  1  0.29245777  0.70754221  0.70754219  1.0
  O  O19  1  0.70754220  0.29245778  0.70754216  1.0
  O  O20  1  0.29245781  0.29245777  0.70754220  1.0
  O  O21  1  0.70754223  0.70754220  0.29245777  1.0
