# generated using pymatgen
data_TiBeN2
_symmetry_space_group_name_H-M   'P 1'
_cell_length_a   5.47765564
_cell_length_b   6.25219032
_cell_length_c   4.67194014
_cell_angle_alpha   89.99998525
_cell_angle_beta   90.00004037
_cell_angle_gamma   89.99997763
_symmetry_Int_Tables_number   1
_chemical_formula_structural   TiBeN2
_chemical_formula_sum   'Ti4 Be4 N8'
_cell_volume   160.00154845
_cell_formula_units_Z   4
loop_
 _symmetry_equiv_pos_site_id
 _symmetry_equiv_pos_as_xyz
  1  'x, y, z'
loop_
 _atom_site_type_symbol
 _atom_site_label
 _atom_site_symmetry_multiplicity
 _atom_site_fract_x
 _atom_site_fract_y
 _atom_site_fract_z
 _atom_site_occupancy
  Ti  Ti0  1  0.59742651  0.37450556  0.96930092  1.0
  Ti  Ti1  1  0.40257408  0.62549483  0.46929959  1.0
  Ti  Ti2  1  0.90257322  0.87450485  0.46929977  1.0
  Ti  Ti3  1  0.09742603  0.12549496  0.96930048  1.0
  Be  Be4  1  0.57707128  0.87547262  0.98950569  1.0
  Be  Be5  1  0.42292884  0.12452702  0.48950976  1.0
  Be  Be6  1  0.92292884  0.37547292  0.48950918  1.0
  Be  Be7  1  0.07707136  0.62452722  0.98950631  1.0
  N  N8  1  0.59344886  0.36628479  0.39249939  1.0
  N  N9  1  0.40655034  0.63371607  0.89249756  1.0
  N  N10  1  0.90655115  0.86628488  0.89249874  1.0
  N  N11  1  0.09344961  0.13371606  0.39249837  1.0
  N  N12  1  0.56256587  0.88870639  0.36269118  1.0
  N  N13  1  0.43743307  0.11129290  0.86269195  1.0
  N  N14  1  0.93743444  0.38870592  0.86269211  1.0
  N  N15  1  0.06256650  0.61129302  0.36269105  1.0
