# generated using pymatgen
data_TiCo2O5
_symmetry_space_group_name_H-M   'P 1'
_cell_length_a   5.33418750
_cell_length_b   5.33419185
_cell_length_c   10.19380706
_cell_angle_alpha   90.00000968
_cell_angle_beta   90.00001407
_cell_angle_gamma   139.89762444
_symmetry_Int_Tables_number   1
_chemical_formula_structural   TiCo2O5
_chemical_formula_sum   'Ti2 Co4 O10'
_cell_volume   186.83745040
_cell_formula_units_Z   2
loop_
 _symmetry_equiv_pos_site_id
 _symmetry_equiv_pos_as_xyz
  1  'x, y, z'
loop_
 _atom_site_type_symbol
 _atom_site_label
 _atom_site_symmetry_multiplicity
 _atom_site_fract_x
 _atom_site_fract_y
 _atom_site_fract_z
 _atom_site_occupancy
  Ti  Ti0  1  0.81899627  0.18100513  0.75000005  1.0
  Ti  Ti1  1  0.18100367  0.81899490  0.24999997  1.0
  Co  Co2  1  0.86519366  0.13480733  0.44256859  1.0
  Co  Co3  1  0.13480619  0.86519264  0.55743142  1.0
  Co  Co4  1  0.86519266  0.13480634  0.05743140  1.0
  Co  Co5  1  0.13480732  0.86519378  0.94256859  1.0
  O  O6  1  0.68588623  0.31411352  0.57736517  1.0
  O  O7  1  0.31411365  0.68588646  0.42263482  1.0
  O  O8  1  0.31411326  0.68588608  0.07736518  1.0
  O  O9  1  0.68588656  0.31411388  0.92263481  1.0
  O  O10  1  0.95007493  0.04992743  0.61822603  1.0
  O  O11  1  0.04992496  0.95007255  0.38177397  1.0
  O  O12  1  0.25172302  0.74827725  0.74999998  1.0
  O  O13  1  0.74827683  0.25172274  0.25000001  1.0
  O  O14  1  0.95007496  0.04992754  0.88177395  1.0
  O  O15  1  0.04992486  0.95007242  0.11822606  1.0
