# generated using pymatgen
data_TiCrN2
_symmetry_space_group_name_H-M   'P 1'
_cell_length_a   5.31023081
_cell_length_b   5.31023099
_cell_length_c   5.31023162
_cell_angle_alpha   32.24547890
_cell_angle_beta   32.24548053
_cell_angle_gamma   32.24549211
_symmetry_Int_Tables_number   1
_chemical_formula_structural   TiCrN2
_chemical_formula_sum   'Ti1 Cr1 N2'
_cell_volume   37.88871472
_cell_formula_units_Z   1
loop_
 _symmetry_equiv_pos_site_id
 _symmetry_equiv_pos_as_xyz
  1  'x, y, z'
loop_
 _atom_site_type_symbol
 _atom_site_label
 _atom_site_symmetry_multiplicity
 _atom_site_fract_x
 _atom_site_fract_y
 _atom_site_fract_z
 _atom_site_occupancy
  Ti  Ti0  1  0.00009645  0.00009642  0.00009563  1.0
  Cr  Cr1  1  0.82573339  0.82573341  0.82573434  1.0
  N  N2  1  0.42239860  0.42239877  0.42239936  1.0
  N  N3  1  0.24657256  0.24657240  0.24657167  1.0
