# generated using pymatgen
data_TiGaN2
_symmetry_space_group_name_H-M   'P 1'
_cell_length_a   3.27590456
_cell_length_b   3.27590458
_cell_length_c   4.65845162
_cell_angle_alpha   90.00000072
_cell_angle_beta   89.99999797
_cell_angle_gamma   89.99999860
_symmetry_Int_Tables_number   1
_chemical_formula_structural   TiGaN2
_chemical_formula_sum   'Ti1 Ga1 N2'
_cell_volume   49.99240998
_cell_formula_units_Z   1
loop_
 _symmetry_equiv_pos_site_id
 _symmetry_equiv_pos_as_xyz
  1  'x, y, z'
loop_
 _atom_site_type_symbol
 _atom_site_label
 _atom_site_symmetry_multiplicity
 _atom_site_fract_x
 _atom_site_fract_y
 _atom_site_fract_z
 _atom_site_occupancy
  Ti  Ti0  1  0.49999999  0.50000000  0.50000000  1.0
  Ga  Ga1  1  0.00000001  0.99999997  0.99999999  1.0
  N  N2  1  0.00000000  0.50000001  0.25258118  1.0
  N  N3  1  0.50000000  0.00000002  0.74741883  1.0
