# generated using pymatgen
data_TiSbN3
_symmetry_space_group_name_H-M   'P 1'
_cell_length_a   5.72495109
_cell_length_b   5.72495116
_cell_length_c   5.72495112
_cell_angle_alpha   55.55108694
_cell_angle_beta   55.55108801
_cell_angle_gamma   55.55108936
_symmetry_Int_Tables_number   1
_chemical_formula_structural   TiSbN3
_chemical_formula_sum   'Ti2 Sb2 N6'
_cell_volume   118.97634139
_cell_formula_units_Z   2
loop_
 _symmetry_equiv_pos_site_id
 _symmetry_equiv_pos_as_xyz
  1  'x, y, z'
loop_
 _atom_site_type_symbol
 _atom_site_label
 _atom_site_symmetry_multiplicity
 _atom_site_fract_x
 _atom_site_fract_y
 _atom_site_fract_z
 _atom_site_occupancy
  Ti  Ti0  1  0.99374325  0.99374331  0.99374328  1.0
  Ti  Ti1  1  0.49374320  0.49374318  0.49374315  1.0
  Sb  Sb2  1  0.70905544  0.70905542  0.70905544  1.0
  Sb  Sb3  1  0.20905529  0.20905530  0.20905530  1.0
  N  N4  1  0.90037891  0.61983385  0.29527865  1.0
  N  N5  1  0.61983384  0.29527863  0.90037891  1.0
  N  N6  1  0.79527900  0.11983362  0.40037876  1.0
  N  N7  1  0.11983363  0.40037879  0.79527900  1.0
  N  N8  1  0.29527865  0.90037890  0.61983386  1.0
  N  N9  1  0.40037879  0.79527900  0.11983365  1.0
