# generated using pymatgen
data_TiSbO4
_symmetry_space_group_name_H-M   'P 1'
_cell_length_a   3.18229870
_cell_length_b   4.78619657
_cell_length_c   4.78619656
_cell_angle_alpha   90.30360704
_cell_angle_beta   89.99999970
_cell_angle_gamma   89.99999970
_symmetry_Int_Tables_number   1
_chemical_formula_structural   TiSbO4
_chemical_formula_sum   'Ti1 Sb1 O4'
_cell_volume   72.89804906
_cell_formula_units_Z   1
loop_
 _symmetry_equiv_pos_site_id
 _symmetry_equiv_pos_as_xyz
  1  'x, y, z'
loop_
 _atom_site_type_symbol
 _atom_site_label
 _atom_site_symmetry_multiplicity
 _atom_site_fract_x
 _atom_site_fract_y
 _atom_site_fract_z
 _atom_site_occupancy
  Ti  Ti0  1  0.50000001  0.50000000  0.50000000  1.0
  Sb  Sb1  1  0.00000000  0.00000000  0.00000000  1.0
  O  O2  1  0.99999999  0.68824568  0.68824569  1.0
  O  O3  1  0.50000000  0.20247156  0.79752840  1.0
  O  O4  1  0.50000000  0.79752843  0.20247160  1.0
  O  O5  1  0.00000000  0.31175432  0.31175432  1.0
