# generated using pymatgen
data_TiSiO4
_symmetry_space_group_name_H-M   'P 1'
_cell_length_a   5.41760501
_cell_length_b   5.41760494
_cell_length_c   5.41760411
_cell_angle_alpha   107.75477114
_cell_angle_beta   107.75477936
_cell_angle_gamma   112.96155819
_symmetry_Int_Tables_number   1
_chemical_formula_structural   TiSiO4
_chemical_formula_sum   'Ti2 Si2 O8'
_cell_volume   122.06227658
_cell_formula_units_Z   2
loop_
 _symmetry_equiv_pos_site_id
 _symmetry_equiv_pos_as_xyz
  1  'x, y, z'
loop_
 _atom_site_type_symbol
 _atom_site_label
 _atom_site_symmetry_multiplicity
 _atom_site_fract_x
 _atom_site_fract_y
 _atom_site_fract_z
 _atom_site_occupancy
  Ti  Ti0  1  0.12500011  0.87499990  0.25000000  1.0
  Ti  Ti1  1  0.87499989  0.12500010  0.74999999  1.0
  Si  Si2  1  0.62500025  0.37499965  0.25000001  1.0
  Si  Si3  1  0.37499974  0.62500034  0.74999999  1.0
  O  O4  1  0.81005796  0.36951613  0.05945834  1.0
  O  O5  1  0.75059926  0.81005786  0.94054204  1.0
  O  O6  1  0.36951632  0.81005784  0.55945862  1.0
  O  O7  1  0.81005797  0.75059964  0.44054232  1.0
  O  O8  1  0.24940039  0.18994207  0.05945770  1.0
  O  O9  1  0.18994212  0.63048369  0.94054141  1.0
  O  O10  1  0.18994211  0.24940070  0.55945794  1.0
  O  O11  1  0.63048387  0.18994208  0.44054165  1.0
