# generated using pymatgen
data_TiSiO4
_symmetry_space_group_name_H-M   'P 1'
_cell_length_a   6.14145839
_cell_length_b   6.14145424
_cell_length_c   6.14145795
_cell_angle_alpha   135.69031809
_cell_angle_beta   135.69034884
_cell_angle_gamma   64.45942204
_symmetry_Int_Tables_number   1
_chemical_formula_structural   TiSiO4
_chemical_formula_sum   'Ti2 Si2 O8'
_cell_volume   111.46531731
_cell_formula_units_Z   2
loop_
 _symmetry_equiv_pos_site_id
 _symmetry_equiv_pos_as_xyz
  1  'x, y, z'
loop_
 _atom_site_type_symbol
 _atom_site_label
 _atom_site_symmetry_multiplicity
 _atom_site_fract_x
 _atom_site_fract_y
 _atom_site_fract_z
 _atom_site_occupancy
  Ti  Ti0  1  0.49999994  0.50000008  0.00000011  1.0
  Ti  Ti1  1  0.25000004  0.74999992  0.49999987  1.0
  Si  Si2  1  0.00000017  0.99999974  0.99999988  1.0
  Si  Si3  1  0.74999983  0.25000026  0.50000012  1.0
  O  O4  1  0.85161739  0.43915679  0.94383859  1.0
  O  O5  1  0.18915627  0.74531835  0.08753879  1.0
  O  O6  1  0.65777896  0.10161770  0.91246083  1.0
  O  O7  1  0.49531813  0.90777875  0.05616127  1.0
  O  O8  1  0.25468198  0.34222095  0.44383865  1.0
  O  O9  1  0.09222137  0.14838249  0.58753960  1.0
  O  O10  1  0.56084349  0.50468156  0.41246079  1.0
  O  O11  1  0.89838242  0.81084340  0.55616149  1.0
