# generated using pymatgen
data_TlReO3
_symmetry_space_group_name_H-M   'P 1'
_cell_length_a   4.02303424
_cell_length_b   4.02303415
_cell_length_c   4.02303322
_cell_angle_alpha   90.00000057
_cell_angle_beta   89.99999900
_cell_angle_gamma   90.00000171
_symmetry_Int_Tables_number   1
_chemical_formula_structural   TlReO3
_chemical_formula_sum   'Tl1 Re1 O3'
_cell_volume   65.11200469
_cell_formula_units_Z   1
loop_
 _symmetry_equiv_pos_site_id
 _symmetry_equiv_pos_as_xyz
  1  'x, y, z'
loop_
 _atom_site_type_symbol
 _atom_site_label
 _atom_site_symmetry_multiplicity
 _atom_site_fract_x
 _atom_site_fract_y
 _atom_site_fract_z
 _atom_site_occupancy
  Tl  Tl0  1  0.99999999  0.00000000  0.99999998  1.0
  Re  Re1  1  0.50000001  0.50000001  0.50000003  1.0
  O  O2  1  0.50000000  0.49999998  0.00000000  1.0
  O  O3  1  0.49999998  0.99999998  0.50000000  1.0
  O  O4  1  0.00000001  0.50000003  0.49999999  1.0
