# generated using pymatgen
data_V2Bi2O7
_symmetry_space_group_name_H-M   'P 1'
_cell_length_a   7.36507650
_cell_length_b   7.36508813
_cell_length_c   7.36508623
_cell_angle_alpha   60.00058854
_cell_angle_beta   60.00035199
_cell_angle_gamma   60.00033867
_symmetry_Int_Tables_number   1
_chemical_formula_structural   V2Bi2O7
_chemical_formula_sum   'V4 Bi4 O14'
_cell_volume   282.50246828
_cell_formula_units_Z   2
loop_
 _symmetry_equiv_pos_site_id
 _symmetry_equiv_pos_as_xyz
  1  'x, y, z'
loop_
 _atom_site_type_symbol
 _atom_site_label
 _atom_site_symmetry_multiplicity
 _atom_site_fract_x
 _atom_site_fract_y
 _atom_site_fract_z
 _atom_site_occupancy
  V  V0  1  0.62500004  0.62500000  0.12499994  1.0
  V  V1  1  0.62499998  0.12500008  0.62499999  1.0
  V  V2  1  0.12500003  0.62500007  0.62499992  1.0
  V  V3  1  0.62500002  0.62500004  0.62499998  1.0
  Bi  Bi4  1  0.12500004  0.12499998  0.62500002  1.0
  Bi  Bi5  1  0.12499991  0.62500000  0.12500001  1.0
  Bi  Bi6  1  0.62500000  0.12499990  0.12500005  1.0
  Bi  Bi7  1  0.12500003  0.12500002  0.12499995  1.0
  O  O8  1  0.24999776  0.25000380  0.25000290  1.0
  O  O9  1  0.00000221  0.99999619  0.99999715  1.0
  O  O10  1  0.55006527  0.94993607  0.55006658  1.0
  O  O11  1  0.30006756  0.69993407  0.30006311  1.0
  O  O12  1  0.55006454  0.55006516  0.94993064  1.0
  O  O13  1  0.94993613  0.55006466  0.55006492  1.0
  O  O14  1  0.55006247  0.94993691  0.94993835  1.0
  O  O15  1  0.94993927  0.94993151  0.55006486  1.0
  O  O16  1  0.94993242  0.55006594  0.94993687  1.0
  O  O17  1  0.69993752  0.30006307  0.30006165  1.0
  O  O18  1  0.30006387  0.69993533  0.69993511  1.0
  O  O19  1  0.69993473  0.30006391  0.69993349  1.0
  O  O20  1  0.30006074  0.30006853  0.69993510  1.0
  O  O21  1  0.69993546  0.69993478  0.30006941  1.0
