# generated using pymatgen
data_VBO3
_symmetry_space_group_name_H-M   'P 1'
_cell_length_a   5.68429540
_cell_length_b   5.68431645
_cell_length_c   5.68432367
_cell_angle_alpha   48.99352097
_cell_angle_beta   48.99350182
_cell_angle_gamma   48.99341211
_symmetry_Int_Tables_number   1
_chemical_formula_structural   VBO3
_chemical_formula_sum   'V2 B2 O6'
_cell_volume   96.03515807
_cell_formula_units_Z   2
loop_
 _symmetry_equiv_pos_site_id
 _symmetry_equiv_pos_as_xyz
  1  'x, y, z'
loop_
 _atom_site_type_symbol
 _atom_site_label
 _atom_site_symmetry_multiplicity
 _atom_site_fract_x
 _atom_site_fract_y
 _atom_site_fract_z
 _atom_site_occupancy
  V  V0  1  0.50000001  0.50000000  0.49999995  1.0
  V  V1  1  0.99999997  0.00000002  0.00000007  1.0
  B  B2  1  0.74999923  0.75000100  0.74999968  1.0
  B  B3  1  0.25000078  0.24999899  0.25000032  1.0
  O  O4  1  0.04637033  0.45363110  0.74999907  1.0
  O  O5  1  0.45362966  0.75000105  0.04636820  1.0
  O  O6  1  0.25000082  0.95363050  0.54636810  1.0
  O  O7  1  0.95362967  0.54636891  0.25000091  1.0
  O  O8  1  0.54637035  0.24999895  0.95363178  1.0
  O  O9  1  0.74999917  0.04636949  0.45363192  1.0
