# generated using pymatgen
data_VBO4
_symmetry_space_group_name_H-M   'P 1'
_cell_length_a   5.10207626
_cell_length_b   5.10207627
_cell_length_c   5.10207519
_cell_angle_alpha   106.44402567
_cell_angle_beta   106.44402647
_cell_angle_gamma   115.71173667
_symmetry_Int_Tables_number   1
_chemical_formula_structural   VBO4
_chemical_formula_sum   'V2 B2 O8'
_cell_volume   101.32008199
_cell_formula_units_Z   2
loop_
 _symmetry_equiv_pos_site_id
 _symmetry_equiv_pos_as_xyz
  1  'x, y, z'
loop_
 _atom_site_type_symbol
 _atom_site_label
 _atom_site_symmetry_multiplicity
 _atom_site_fract_x
 _atom_site_fract_y
 _atom_site_fract_z
 _atom_site_occupancy
  V  V0  1  0.12499998  0.87500001  0.25000000  1.0
  V  V1  1  0.87500001  0.12499998  0.75000000  1.0
  B  B2  1  0.62500001  0.37500000  0.25000000  1.0
  B  B3  1  0.37499999  0.62500000  0.75000000  1.0
  O  O4  1  0.80768868  0.37856990  0.07088119  1.0
  O  O5  1  0.73680724  0.80768879  0.92911845  1.0
  O  O6  1  0.26319248  0.19231131  0.07088118  1.0
  O  O7  1  0.19231123  0.62142964  0.92911843  1.0
  O  O8  1  0.19231121  0.26319276  0.57088155  1.0
  O  O9  1  0.62143010  0.19231132  0.42911880  1.0
  O  O10  1  0.80768870  0.73680753  0.42911882  1.0
  O  O11  1  0.37857036  0.80768877  0.57088157  1.0
