# generated using pymatgen
data_VSbO4
_symmetry_space_group_name_H-M   'P 1'
_cell_length_a   4.70500427
_cell_length_b   4.70496721
_cell_length_c   3.18399279
_cell_angle_alpha   90.00934253
_cell_angle_beta   90.00934435
_cell_angle_gamma   91.38361992
_symmetry_Int_Tables_number   1
_chemical_formula_structural   VSbO4
_chemical_formula_sum   'V1 Sb1 O4'
_cell_volume   70.46314815
_cell_formula_units_Z   1
loop_
 _symmetry_equiv_pos_site_id
 _symmetry_equiv_pos_as_xyz
  1  'x, y, z'
loop_
 _atom_site_type_symbol
 _atom_site_label
 _atom_site_symmetry_multiplicity
 _atom_site_fract_x
 _atom_site_fract_y
 _atom_site_fract_z
 _atom_site_occupancy
  V  V0  1  0.50000002  0.50000002  0.50000003  1.0
  Sb  Sb1  1  0.00000000  0.00000001  0.00000001  1.0
  O  O2  1  0.30208023  0.30207958  0.00007771  1.0
  O  O3  1  0.19469608  0.80530391  0.50000000  1.0
  O  O4  1  0.80530393  0.19469610  0.50000001  1.0
  O  O5  1  0.69791975  0.69792038  0.99992224  1.0
