# generated using pymatgen
data_Y2Zr2O7
_symmetry_space_group_name_H-M   'P 1'
_cell_length_a   7.50950000
_cell_length_b   7.50950042
_cell_length_c   7.50949168
_cell_angle_alpha   60.00013949
_cell_angle_beta   60.00014039
_cell_angle_gamma   59.99991514
_symmetry_Int_Tables_number   1
_chemical_formula_structural   Y2Zr2O7
_chemical_formula_sum   'Y4 Zr4 O14'
_cell_volume   299.44581667
_cell_formula_units_Z   2
loop_
 _symmetry_equiv_pos_site_id
 _symmetry_equiv_pos_as_xyz
  1  'x, y, z'
loop_
 _atom_site_type_symbol
 _atom_site_label
 _atom_site_symmetry_multiplicity
 _atom_site_fract_x
 _atom_site_fract_y
 _atom_site_fract_z
 _atom_site_occupancy
  Y  Y0  1  0.12500025  0.12499913  0.12499977  1.0
  Y  Y1  1  0.62500065  0.12499993  0.12499907  1.0
  Y  Y2  1  0.12499947  0.12500002  0.62500070  1.0
  Y  Y3  1  0.12500028  0.62500093  0.12499985  1.0
  Zr  Zr4  1  0.62499831  0.62500101  0.12500058  1.0
  Zr  Zr5  1  0.62500028  0.62499953  0.62499993  1.0
  Zr  Zr6  1  0.62499968  0.12499998  0.62500094  1.0
  Zr  Zr7  1  0.12500086  0.62500011  0.62499841  1.0
  O  O8  1  0.71500007  0.71499965  0.28499863  1.0
  O  O9  1  0.96499722  0.53500338  0.53500379  1.0
  O  O10  1  0.24999986  0.25000005  0.24999971  1.0
  O  O11  1  0.96499578  0.53500333  0.96499717  1.0
  O  O12  1  0.96499975  0.96500000  0.53500037  1.0
  O  O13  1  0.53500343  0.96499744  0.53500346  1.0
  O  O14  1  0.71499632  0.28500411  0.28500297  1.0
  O  O15  1  0.53500421  0.96499543  0.96499668  1.0
  O  O16  1  0.28500028  0.28500040  0.71499968  1.0
  O  O17  1  0.71499616  0.28500277  0.71499654  1.0
  O  O18  1  0.28500455  0.71499600  0.28500350  1.0
  O  O19  1  0.00000002  0.00000021  0.00000008  1.0
  O  O20  1  0.28500240  0.71499639  0.71499682  1.0
  O  O21  1  0.53500017  0.53500020  0.96500135  1.0
