# generated using pymatgen
data_YBiO3
_symmetry_space_group_name_H-M   'P 1'
_cell_length_a   4.31524408
_cell_length_b   4.31525657
_cell_length_c   4.31523842
_cell_angle_alpha   89.99999867
_cell_angle_beta   89.99999841
_cell_angle_gamma   90.00000000
_symmetry_Int_Tables_number   1
_chemical_formula_structural   YBiO3
_chemical_formula_sum   'Y1 Bi1 O3'
_cell_volume   80.35571757
_cell_formula_units_Z   1
loop_
 _symmetry_equiv_pos_site_id
 _symmetry_equiv_pos_as_xyz
  1  'x, y, z'
loop_
 _atom_site_type_symbol
 _atom_site_label
 _atom_site_symmetry_multiplicity
 _atom_site_fract_x
 _atom_site_fract_y
 _atom_site_fract_z
 _atom_site_occupancy
  Y  Y0  1  0.50000002  0.50000000  0.50000001  1.0
  Bi  Bi1  1  0.00000000  0.99999999  0.00000001  1.0
  O  O2  1  0.50000001  0.00000000  0.50000001  1.0
  O  O3  1  0.49999997  0.50000000  0.99999999  1.0
  O  O4  1  0.00000000  0.50000001  0.49999999  1.0
