# generated using pymatgen
data_YBN2
_symmetry_space_group_name_H-M   'P 1'
_cell_length_a   3.07042811
_cell_length_b   3.07042812
_cell_length_c   4.79617238
_cell_angle_alpha   89.99999518
_cell_angle_beta   89.99999792
_cell_angle_gamma   89.99999963
_symmetry_Int_Tables_number   1
_chemical_formula_structural   YBN2
_chemical_formula_sum   'Y1 B1 N2'
_cell_volume   45.21605329
_cell_formula_units_Z   1
loop_
 _symmetry_equiv_pos_site_id
 _symmetry_equiv_pos_as_xyz
  1  'x, y, z'
loop_
 _atom_site_type_symbol
 _atom_site_label
 _atom_site_symmetry_multiplicity
 _atom_site_fract_x
 _atom_site_fract_y
 _atom_site_fract_z
 _atom_site_occupancy
  Y  Y0  1  0.49999998  0.50000004  0.49999999  1.0
  B  B1  1  0.99999995  0.00000012  0.00000000  1.0
  N  N2  1  0.50000008  0.00000000  0.82916813  1.0
  N  N3  1  0.00000000  0.49999983  0.17083187  1.0
