# generated using pymatgen
data_YBO3
_symmetry_space_group_name_H-M   'P 1'
_cell_length_a   6.26514590
_cell_length_b   6.26514593
_cell_length_c   6.26514628
_cell_angle_alpha   47.46405987
_cell_angle_beta   47.46405941
_cell_angle_gamma   47.46405636
_symmetry_Int_Tables_number   1
_chemical_formula_structural   YBO3
_chemical_formula_sum   'Y2 B2 O6'
_cell_volume   122.17898260
_cell_formula_units_Z   2
loop_
 _symmetry_equiv_pos_site_id
 _symmetry_equiv_pos_as_xyz
  1  'x, y, z'
loop_
 _atom_site_type_symbol
 _atom_site_label
 _atom_site_symmetry_multiplicity
 _atom_site_fract_x
 _atom_site_fract_y
 _atom_site_fract_z
 _atom_site_occupancy
  Y  Y0  1  0.50000000  0.49999999  0.49999999  1.0
  Y  Y1  1  0.00000001  0.00000001  0.00000000  1.0
  B  B2  1  0.75000011  0.74999989  0.75000000  1.0
  B  B3  1  0.24999989  0.25000011  0.24999999  1.0
  O  O4  1  0.02718535  0.47281464  0.75000001  1.0
  O  O5  1  0.47281442  0.75000003  0.02718556  1.0
  O  O6  1  0.25000003  0.97281453  0.52718545  1.0
  O  O7  1  0.97281474  0.52718526  0.25000000  1.0
  O  O8  1  0.52718548  0.24999997  0.97281453  1.0
  O  O9  1  0.74999997  0.02718556  0.47281446  1.0
