# generated using pymatgen
data_YbSbO4
_symmetry_space_group_name_H-M   'P 1'
_cell_length_a   5.09530617
_cell_length_b   5.09530605
_cell_length_c   3.24681633
_cell_angle_alpha   89.99999831
_cell_angle_beta   90.00000139
_cell_angle_gamma   92.49014814
_symmetry_Int_Tables_number   1
_chemical_formula_structural   YbSbO4
_chemical_formula_sum   'Yb1 Sb1 O4'
_cell_volume   84.21471573
_cell_formula_units_Z   1
loop_
 _symmetry_equiv_pos_site_id
 _symmetry_equiv_pos_as_xyz
  1  'x, y, z'
loop_
 _atom_site_type_symbol
 _atom_site_label
 _atom_site_symmetry_multiplicity
 _atom_site_fract_x
 _atom_site_fract_y
 _atom_site_fract_z
 _atom_site_occupancy
  Yb  Yb0  1  0.49999886  0.50000181  0.50000000  1.0
  Sb  Sb1  1  0.00000263  0.99999875  0.00000000  1.0
  O  O2  1  0.27637575  0.27637852  0.99999998  1.0
  O  O3  1  0.17928041  0.82071976  0.50000002  1.0
  O  O4  1  0.82072208  0.17927812  0.49999999  1.0
  O  O5  1  0.72362028  0.72362305  0.00000002  1.0
