# generated using pymatgen
data_YCrO3
_symmetry_space_group_name_H-M   'P 1'
_cell_length_a   5.41259675
_cell_length_b   5.41260050
_cell_length_c   5.41262148
_cell_angle_alpha   61.62517612
_cell_angle_beta   61.62517492
_cell_angle_gamma   61.62471183
_symmetry_Int_Tables_number   1
_chemical_formula_structural   YCrO3
_chemical_formula_sum   'Y2 Cr2 O6'
_cell_volume   116.21194308
_cell_formula_units_Z   2
loop_
 _symmetry_equiv_pos_site_id
 _symmetry_equiv_pos_as_xyz
  1  'x, y, z'
loop_
 _atom_site_type_symbol
 _atom_site_label
 _atom_site_symmetry_multiplicity
 _atom_site_fract_x
 _atom_site_fract_y
 _atom_site_fract_z
 _atom_site_occupancy
  Y  Y0  1  0.25000786  0.24999208  0.24999990  1.0
  Y  Y1  1  0.74999214  0.75000792  0.75000010  1.0
  Cr  Cr2  1  0.00000000  0.00000001  0.00000000  1.0
  Cr  Cr3  1  0.50000000  0.50000000  0.50000000  1.0
  O  O4  1  0.74998347  0.15103550  0.34896281  1.0
  O  O5  1  0.15102546  0.34897441  0.75000058  1.0
  O  O6  1  0.65103572  0.24998400  0.84896262  1.0
  O  O7  1  0.34896428  0.75001599  0.15103738  1.0
  O  O8  1  0.84897454  0.65102559  0.24999942  1.0
  O  O9  1  0.25001653  0.84896450  0.65103718  1.0
