# generated using pymatgen
data_YFeO3
_symmetry_space_group_name_H-M   'P 1'
_cell_length_a   3.90673346
_cell_length_b   3.90673492
_cell_length_c   3.90673394
_cell_angle_alpha   89.99999736
_cell_angle_beta   89.99999648
_cell_angle_gamma   90.00000792
_symmetry_Int_Tables_number   1
_chemical_formula_structural   YFeO3
_chemical_formula_sum   'Y1 Fe1 O3'
_cell_volume   59.62680817
_cell_formula_units_Z   1
loop_
 _symmetry_equiv_pos_site_id
 _symmetry_equiv_pos_as_xyz
  1  'x, y, z'
loop_
 _atom_site_type_symbol
 _atom_site_label
 _atom_site_symmetry_multiplicity
 _atom_site_fract_x
 _atom_site_fract_y
 _atom_site_fract_z
 _atom_site_occupancy
  Y  Y0  1  0.00000001  0.00000004  0.00000004  1.0
  Fe  Fe1  1  0.50000003  0.50000003  0.50000005  1.0
  O  O2  1  0.50000002  0.49999997  0.99999996  1.0
  O  O3  1  0.49999998  0.00000001  0.49999999  1.0
  O  O4  1  0.99999996  0.49999996  0.49999996  1.0
