# generated using pymatgen
data_YGaO3
_symmetry_space_group_name_H-M   'P 1'
_cell_length_a   5.33767439
_cell_length_b   5.64271313
_cell_length_c   7.69856455
_cell_angle_alpha   89.99999596
_cell_angle_beta   90.00004484
_cell_angle_gamma   89.99999478
_symmetry_Int_Tables_number   1
_chemical_formula_structural   YGaO3
_chemical_formula_sum   'Y4 Ga4 O12'
_cell_volume   231.87279903
_cell_formula_units_Z   4
loop_
 _symmetry_equiv_pos_site_id
 _symmetry_equiv_pos_as_xyz
  1  'x, y, z'
loop_
 _atom_site_type_symbol
 _atom_site_label
 _atom_site_symmetry_multiplicity
 _atom_site_fract_x
 _atom_site_fract_y
 _atom_site_fract_z
 _atom_site_occupancy
  Y  Y0  1  0.01951162  0.93126936  0.74999997  1.0
  Y  Y1  1  0.51951162  0.56873067  0.24999991  1.0
  Y  Y2  1  0.48048838  0.43126933  0.75000009  1.0
  Y  Y3  1  0.98048839  0.06873064  0.25000003  1.0
  Ga  Ga4  1  0.99999999  0.50000000  0.50000000  1.0
  Ga  Ga5  1  0.50000001  0.00000000  0.50000000  1.0
  Ga  Ga6  1  0.50000001  0.99999999  0.00000000  1.0
  Ga  Ga7  1  0.00000000  0.50000000  0.00000001  1.0
  O  O8  1  0.69421672  0.30464679  0.44233985  1.0
  O  O9  1  0.19421952  0.19535070  0.55765964  1.0
  O  O10  1  0.80578333  0.80464664  0.05766012  1.0
  O  O11  1  0.30578031  0.69535063  0.94234038  1.0
  O  O12  1  0.30578327  0.69535322  0.55766014  1.0
  O  O13  1  0.80578048  0.80464929  0.44234036  1.0
  O  O14  1  0.19421668  0.19535336  0.94233988  1.0
  O  O15  1  0.69421968  0.30464937  0.05765963  1.0
  O  O16  1  0.11243063  0.45995348  0.24999797  1.0
  O  O17  1  0.61243068  0.04004656  0.74999810  1.0
  O  O18  1  0.38756932  0.95995346  0.25000190  1.0
  O  O19  1  0.88756936  0.54004652  0.75000203  1.0
