# generated using pymatgen
data_YGaO3
_symmetry_space_group_name_H-M   'P 1'
_cell_length_a   5.41747342
_cell_length_b   5.41747338
_cell_length_c   5.41747319
_cell_angle_alpha   61.33487637
_cell_angle_beta   61.33487360
_cell_angle_gamma   61.33487346
_symmetry_Int_Tables_number   1
_chemical_formula_structural   YGaO3
_chemical_formula_sum   'Y2 Ga2 O6'
_cell_volume   115.80095827
_cell_formula_units_Z   2
loop_
 _symmetry_equiv_pos_site_id
 _symmetry_equiv_pos_as_xyz
  1  'x, y, z'
loop_
 _atom_site_type_symbol
 _atom_site_label
 _atom_site_symmetry_multiplicity
 _atom_site_fract_x
 _atom_site_fract_y
 _atom_site_fract_z
 _atom_site_occupancy
  Y  Y0  1  0.24999980  0.24999982  0.24999988  1.0
  Y  Y1  1  0.75000017  0.75000008  0.75000006  1.0
  Ga  Ga2  1  0.00000000  0.99999999  0.99999999  1.0
  Ga  Ga3  1  0.49999999  0.49999999  0.50000000  1.0
  O  O4  1  0.75000066  0.15367277  0.34632644  1.0
  O  O5  1  0.15367284  0.34632638  0.75000058  1.0
  O  O6  1  0.65367358  0.24999952  0.84632721  1.0
  O  O7  1  0.34632645  0.75000064  0.15367277  1.0
  O  O8  1  0.84632720  0.65367359  0.24999949  1.0
  O  O9  1  0.24999931  0.84632721  0.65367359  1.0
