# generated using pymatgen
data_YMnO3
_symmetry_space_group_name_H-M   'P 1'
_cell_length_a   5.45762904
_cell_length_b   5.45762560
_cell_length_c   5.45762796
_cell_angle_alpha   61.36483644
_cell_angle_beta   61.36486278
_cell_angle_gamma   61.36489876
_symmetry_Int_Tables_number   1
_chemical_formula_structural   YMnO3
_chemical_formula_sum   'Y2 Mn2 O6'
_cell_volume   118.47177566
_cell_formula_units_Z   2
loop_
 _symmetry_equiv_pos_site_id
 _symmetry_equiv_pos_as_xyz
  1  'x, y, z'
loop_
 _atom_site_type_symbol
 _atom_site_label
 _atom_site_symmetry_multiplicity
 _atom_site_fract_x
 _atom_site_fract_y
 _atom_site_fract_z
 _atom_site_occupancy
  Y  Y0  1  0.25000004  0.25000012  0.24999994  1.0
  Y  Y1  1  0.74999997  0.74999987  0.75000006  1.0
  Mn  Mn2  1  0.00000000  0.00000000  0.99999999  1.0
  Mn  Mn3  1  0.50000000  0.50000000  0.50000000  1.0
  O  O4  1  0.74999856  0.15104700  0.34895503  1.0
  O  O5  1  0.15104658  0.34895475  0.74999895  1.0
  O  O6  1  0.65104456  0.25000185  0.84895271  1.0
  O  O7  1  0.34895544  0.74999815  0.15104730  1.0
  O  O8  1  0.84895343  0.65104526  0.25000105  1.0
  O  O9  1  0.25000142  0.84895300  0.65104497  1.0
