# generated using pymatgen
data_YScO3
_symmetry_space_group_name_H-M   'P 1'
_cell_length_a   5.49037375
_cell_length_b   5.78506597
_cell_length_c   8.02979595
_cell_angle_alpha   90.00000124
_cell_angle_beta   89.99999856
_cell_angle_gamma   90.00000000
_symmetry_Int_Tables_number   1
_chemical_formula_structural   YScO3
_chemical_formula_sum   'Y4 Sc4 O12'
_cell_volume   255.04377891
_cell_formula_units_Z   4
loop_
 _symmetry_equiv_pos_site_id
 _symmetry_equiv_pos_as_xyz
  1  'x, y, z'
loop_
 _atom_site_type_symbol
 _atom_site_label
 _atom_site_symmetry_multiplicity
 _atom_site_fract_x
 _atom_site_fract_y
 _atom_site_fract_z
 _atom_site_occupancy
  Y  Y0  1  0.01887848  0.93764295  0.75000003  1.0
  Y  Y1  1  0.51887841  0.56235706  0.25000002  1.0
  Y  Y2  1  0.48112156  0.43764292  0.74999998  1.0
  Y  Y3  1  0.98112159  0.06235708  0.25000001  1.0
  Sc  Sc4  1  0.00000019  0.49999975  0.49999992  1.0
  Sc  Sc5  1  0.49999953  0.00000016  0.50000014  1.0
  Sc  Sc6  1  0.49999960  0.00000016  0.99999995  1.0
  Sc  Sc7  1  0.00000046  0.50000027  0.99999983  1.0
  O  O8  1  0.68949717  0.30777315  0.43194216  1.0
  O  O9  1  0.18949717  0.19222677  0.56805792  1.0
  O  O10  1  0.81050287  0.80777320  0.06805786  1.0
  O  O11  1  0.31050288  0.69222680  0.93194209  1.0
  O  O12  1  0.31050288  0.69222677  0.56805787  1.0
  O  O13  1  0.81050283  0.80777315  0.43194209  1.0
  O  O14  1  0.18949716  0.19222678  0.93194214  1.0
  O  O15  1  0.68949719  0.30777318  0.06805793  1.0
  O  O16  1  0.13029906  0.44207078  0.25000001  1.0
  O  O17  1  0.63029901  0.05792914  0.75000003  1.0
  O  O18  1  0.36970097  0.94207078  0.25000001  1.0
  O  O19  1  0.86970101  0.55792915  0.75000000  1.0
