# generated using pymatgen
data_YTaO4
_symmetry_space_group_name_H-M   'P 1'
_cell_length_a   4.59943469
_cell_length_b   4.59943469
_cell_length_c   3.01394800
_cell_angle_alpha   90.00000000
_cell_angle_beta   90.00000000
_cell_angle_gamma   90.98010126
_symmetry_Int_Tables_number   1
_chemical_formula_structural   YTaO4
_chemical_formula_sum   'Y1 Ta1 O4'
_cell_volume   63.75013728
_cell_formula_units_Z   1
loop_
 _symmetry_equiv_pos_site_id
 _symmetry_equiv_pos_as_xyz
  1  'x, y, z'
loop_
 _atom_type_symbol
 _atom_type_oxidation_number
  Y3+  3.0
  Ta5+  5.0
  O2-  -2.0
loop_
 _atom_site_type_symbol
 _atom_site_label
 _atom_site_symmetry_multiplicity
 _atom_site_fract_x
 _atom_site_fract_y
 _atom_site_fract_z
 _atom_site_occupancy
  Y3+  Y1  1  0.50000000  0.50000000  0.50000000  1.0
  Ta5+  Ta0  1  0.00000000  0.00000000  0.00000000  1.0
  O2-  O2  1  0.69180200  0.69180200  0.00000000  1.0
  O2-  O3  1  0.79843700  0.20156300  0.50000000  1.0
  O2-  O4  1  0.20156300  0.79843700  0.50000000  1.0
  O2-  O5  1  0.30819800  0.30819800  0.00000000  1.0
