# generated using pymatgen
data_YTiO3
_symmetry_space_group_name_H-M   'P 1'
_cell_length_a   5.36392305
_cell_length_b   5.73836741
_cell_length_c   7.73451915
_cell_angle_alpha   89.99987460
_cell_angle_beta   90.00050116
_cell_angle_gamma   90.00001115
_symmetry_Int_Tables_number   1
_chemical_formula_structural   YTiO3
_chemical_formula_sum   'Y4 Ti4 O12'
_cell_volume   238.06974639
_cell_formula_units_Z   4
loop_
 _symmetry_equiv_pos_site_id
 _symmetry_equiv_pos_as_xyz
  1  'x, y, z'
loop_
 _atom_site_type_symbol
 _atom_site_label
 _atom_site_symmetry_multiplicity
 _atom_site_fract_x
 _atom_site_fract_y
 _atom_site_fract_z
 _atom_site_occupancy
  Y  Y0  1  0.02177426  0.92794130  0.75000118  1.0
  Y  Y1  1  0.52177425  0.57205856  0.24999932  1.0
  Y  Y2  1  0.47822576  0.42794134  0.75000071  1.0
  Y  Y3  1  0.97822574  0.07205880  0.24999879  1.0
  Ti  Ti4  1  0.00000001  0.49999997  0.00000003  1.0
  Ti  Ti5  1  0.50000000  0.00000003  0.99999999  1.0
  Ti  Ti6  1  0.49999999  0.00000007  0.50000001  1.0
  Ti  Ti7  1  0.99999999  0.49999994  0.49999999  1.0
  O  O8  1  0.68904901  0.30348417  0.44204991  1.0
  O  O9  1  0.18904700  0.19651809  0.55794994  1.0
  O  O10  1  0.81095207  0.80348453  0.05794855  1.0
  O  O11  1  0.31095343  0.69651702  0.94205159  1.0
  O  O12  1  0.31095104  0.69651584  0.55795007  1.0
  O  O13  1  0.81095302  0.80348191  0.44205007  1.0
  O  O14  1  0.18904792  0.19651545  0.94205144  1.0
  O  O15  1  0.68904654  0.30348298  0.05794843  1.0
  O  O16  1  0.12230040  0.45310245  0.25000115  1.0
  O  O17  1  0.62230055  0.04689759  0.75000050  1.0
  O  O18  1  0.37769946  0.95310239  0.24999949  1.0
  O  O19  1  0.87769957  0.54689757  0.74999884  1.0
