# generated using pymatgen
data_ZnSiO3
_symmetry_space_group_name_H-M   'P 1'
_cell_length_a   5.46698391
_cell_length_b   5.46698398
_cell_length_c   5.46698369
_cell_angle_alpha   52.50631354
_cell_angle_beta   52.50631283
_cell_angle_gamma   52.50630914
_symmetry_Int_Tables_number   1
_chemical_formula_structural   ZnSiO3
_chemical_formula_sum   'Zn2 Si2 O6'
_cell_volume   95.21359932
_cell_formula_units_Z   2
loop_
 _symmetry_equiv_pos_site_id
 _symmetry_equiv_pos_as_xyz
  1  'x, y, z'
loop_
 _atom_site_type_symbol
 _atom_site_label
 _atom_site_symmetry_multiplicity
 _atom_site_fract_x
 _atom_site_fract_y
 _atom_site_fract_z
 _atom_site_occupancy
  Zn  Zn0  1  0.36927861  0.36927864  0.36927859  1.0
  Zn  Zn1  1  0.63072139  0.63072137  0.63072143  1.0
  Si  Si2  1  0.16082683  0.16082675  0.16082679  1.0
  Si  Si3  1  0.83917317  0.83917325  0.83917321  1.0
  O  O4  1  0.80208680  0.04648813  0.43739483  1.0
  O  O5  1  0.43739485  0.80208687  0.04648808  1.0
  O  O6  1  0.04648809  0.43739486  0.80208678  1.0
  O  O7  1  0.19791321  0.95351185  0.56260516  1.0
  O  O8  1  0.95351191  0.56260514  0.19791322  1.0
  O  O9  1  0.56260515  0.19791314  0.95351191  1.0
