# generated using pymatgen
data_ZnSiN2
_symmetry_space_group_name_H-M   'P 1'
_cell_length_a   5.09600344
_cell_length_b   5.31316919
_cell_length_c   6.32877487
_cell_angle_alpha   89.99999174
_cell_angle_beta   90.00000131
_cell_angle_gamma   90.00000000
_symmetry_Int_Tables_number   1
_chemical_formula_structural   ZnSiN2
_chemical_formula_sum   'Zn4 Si4 N8'
_cell_volume   171.35745568
_cell_formula_units_Z   4
loop_
 _symmetry_equiv_pos_site_id
 _symmetry_equiv_pos_as_xyz
  1  'x, y, z'
loop_
 _atom_site_type_symbol
 _atom_site_label
 _atom_site_symmetry_multiplicity
 _atom_site_fract_x
 _atom_site_fract_y
 _atom_site_fract_z
 _atom_site_occupancy
  Zn  Zn0  1  0.00018964  0.08441185  0.62468021  1.0
  Zn  Zn1  1  0.50018966  0.91558812  0.37531985  1.0
  Zn  Zn2  1  0.50018971  0.41558808  0.12468089  1.0
  Zn  Zn3  1  0.00018972  0.58441195  0.87531917  1.0
  Si  Si4  1  0.00053619  0.07239147  0.12518462  1.0
  Si  Si5  1  0.00053612  0.57239139  0.37481516  1.0
  Si  Si6  1  0.50053612  0.42760858  0.62518483  1.0
  Si  Si7  1  0.50053619  0.92760853  0.87481535  1.0
  N  N8  1  0.40539414  0.60840313  0.84785187  1.0
  N  N9  1  0.34588015  0.05514813  0.09857142  1.0
  N  N10  1  0.90539413  0.39159690  0.15214810  1.0
  N  N11  1  0.90539400  0.89159687  0.34785164  1.0
  N  N12  1  0.84588006  0.44485180  0.59857119  1.0
  N  N13  1  0.84588016  0.94485188  0.90142860  1.0
  N  N14  1  0.34588005  0.55514819  0.40142880  1.0
  N  N15  1  0.40539400  0.10840313  0.65214831  1.0
