# generated using pymatgen
data_Zr2Bi2O7
_symmetry_space_group_name_H-M   'P 1'
_cell_length_a   7.67784862
_cell_length_b   7.67784852
_cell_length_c   7.67784869
_cell_angle_alpha   59.99995920
_cell_angle_beta   59.99995973
_cell_angle_gamma   59.99995888
_symmetry_Int_Tables_number   1
_chemical_formula_structural   Zr2Bi2O7
_chemical_formula_sum   'Zr4 Bi4 O14'
_cell_volume   320.03924321
_cell_formula_units_Z   2
loop_
 _symmetry_equiv_pos_site_id
 _symmetry_equiv_pos_as_xyz
  1  'x, y, z'
loop_
 _atom_site_type_symbol
 _atom_site_label
 _atom_site_symmetry_multiplicity
 _atom_site_fract_x
 _atom_site_fract_y
 _atom_site_fract_z
 _atom_site_occupancy
  Zr  Zr0  1  0.62499997  0.62500007  0.12500002  1.0
  Zr  Zr1  1  0.62499991  0.12500001  0.62500011  1.0
  Zr  Zr2  1  0.12499999  0.62499994  0.62500004  1.0
  Zr  Zr3  1  0.62500002  0.62499999  0.62499999  1.0
  Bi  Bi4  1  0.12499994  0.12499999  0.62499998  1.0
  Bi  Bi5  1  0.12500006  0.62499999  0.12500005  1.0
  Bi  Bi6  1  0.62500000  0.12500014  0.12500009  1.0
  Bi  Bi7  1  0.12499978  0.12499997  0.12500025  1.0
  O  O8  1  0.24999992  0.25000001  0.25000008  1.0
  O  O9  1  0.99999997  0.00000009  0.00000012  1.0
  O  O10  1  0.54170806  0.95829203  0.54170797  1.0
  O  O11  1  0.29170794  0.70829197  0.29170797  1.0
  O  O12  1  0.54170800  0.54170792  0.95829210  1.0
  O  O13  1  0.95829198  0.54170808  0.54170807  1.0
  O  O14  1  0.54170817  0.95829185  0.95829186  1.0
  O  O15  1  0.95829215  0.95829215  0.54170782  1.0
  O  O16  1  0.95829201  0.54170797  0.95829203  1.0
  O  O17  1  0.70829209  0.29170784  0.29170786  1.0
  O  O18  1  0.29170800  0.70829198  0.70829192  1.0
  O  O19  1  0.70829199  0.29170802  0.70829187  1.0
  O  O20  1  0.29170812  0.29170814  0.70829175  1.0
  O  O21  1  0.70829192  0.70829186  0.29170807  1.0
