# generated using pymatgen
data_Zr2In2O7
_symmetry_space_group_name_H-M   'P 1'
_cell_length_a   7.45228218
_cell_length_b   7.45228117
_cell_length_c   7.45227525
_cell_angle_alpha   60.00004950
_cell_angle_beta   60.00005526
_cell_angle_gamma   59.99996031
_symmetry_Int_Tables_number   1
_chemical_formula_structural   Zr2In2O7
_chemical_formula_sum   'Zr4 In4 O14'
_cell_volume   292.65276128
_cell_formula_units_Z   2
loop_
 _symmetry_equiv_pos_site_id
 _symmetry_equiv_pos_as_xyz
  1  'x, y, z'
loop_
 _atom_site_type_symbol
 _atom_site_label
 _atom_site_symmetry_multiplicity
 _atom_site_fract_x
 _atom_site_fract_y
 _atom_site_fract_z
 _atom_site_occupancy
  Zr  Zr0  1  0.62500021  0.62499985  0.12500004  1.0
  Zr  Zr1  1  0.62499998  0.62500016  0.62499986  1.0
  Zr  Zr2  1  0.62499996  0.12499991  0.62499996  1.0
  Zr  Zr3  1  0.12499995  0.62500000  0.62500010  1.0
  In  In4  1  0.12499982  0.12500010  0.12500003  1.0
  In  In5  1  0.62500002  0.12500030  0.12499945  1.0
  In  In6  1  0.12499973  0.12500009  0.62499998  1.0
  In  In7  1  0.12500042  0.62500007  0.12499972  1.0
  O  O8  1  0.71744750  0.71744719  0.28255288  1.0
  O  O9  1  0.96744164  0.53255806  0.53255837  1.0
  O  O10  1  0.24999988  0.24999998  0.24999975  1.0
  O  O11  1  0.96744159  0.53255848  0.96744147  1.0
  O  O12  1  0.96744728  0.96744735  0.53255316  1.0
  O  O13  1  0.53255830  0.96744151  0.53255830  1.0
  O  O14  1  0.71744123  0.28255816  0.28255843  1.0
  O  O15  1  0.53255894  0.96744160  0.96744158  1.0
  O  O16  1  0.28255276  0.28255265  0.71744701  1.0
  O  O17  1  0.71744163  0.28255831  0.71744210  1.0
  O  O18  1  0.28255827  0.71744153  0.28255840  1.0
  O  O19  1  0.00000014  0.00000010  0.00000014  1.0
  O  O20  1  0.28255819  0.71744180  0.71744211  1.0
  O  O21  1  0.53255256  0.53255282  0.96744713  1.0
