# generated using pymatgen
data_Zr2Sc2O7
_symmetry_space_group_name_H-M   'P 1'
_cell_length_a   7.31327202
_cell_length_b   7.31327189
_cell_length_c   7.31326720
_cell_angle_alpha   59.99998925
_cell_angle_beta   59.99999056
_cell_angle_gamma   59.99992264
_symmetry_Int_Tables_number   1
_chemical_formula_structural   Zr2Sc2O7
_chemical_formula_sum   'Zr4 Sc4 O14'
_cell_volume   276.57923462
_cell_formula_units_Z   2
loop_
 _symmetry_equiv_pos_site_id
 _symmetry_equiv_pos_as_xyz
  1  'x, y, z'
loop_
 _atom_site_type_symbol
 _atom_site_label
 _atom_site_symmetry_multiplicity
 _atom_site_fract_x
 _atom_site_fract_y
 _atom_site_fract_z
 _atom_site_occupancy
  Zr  Zr0  1  0.62500006  0.62499991  0.12500011  1.0
  Zr  Zr1  1  0.62500003  0.62500010  0.62499988  1.0
  Zr  Zr2  1  0.62500000  0.12499989  0.62499999  1.0
  Zr  Zr3  1  0.12500002  0.62499999  0.62499998  1.0
  Sc  Sc4  1  0.12499977  0.12500015  0.12499991  1.0
  Sc  Sc5  1  0.62499988  0.12500051  0.12499912  1.0
  Sc  Sc6  1  0.12499962  0.12500010  0.62500000  1.0
  Sc  Sc7  1  0.12500068  0.62500004  0.12499958  1.0
  O  O8  1  0.72302521  0.72302494  0.27697491  1.0
  O  O9  1  0.97302340  0.52697643  0.52697687  1.0
  O  O10  1  0.25000002  0.25000005  0.24999972  1.0
  O  O11  1  0.97302308  0.52697658  0.97302309  1.0
  O  O12  1  0.97302516  0.97302521  0.52697499  1.0
  O  O13  1  0.52697667  0.97302320  0.52697696  1.0
  O  O14  1  0.72302331  0.27697666  0.27697681  1.0
  O  O15  1  0.52697690  0.97302320  0.97302328  1.0
  O  O16  1  0.27697506  0.27697496  0.72302518  1.0
  O  O17  1  0.72302329  0.27697639  0.72302387  1.0
  O  O18  1  0.27697661  0.72302346  0.27697668  1.0
  O  O19  1  0.00000019  0.00000015  0.00000000  1.0
  O  O20  1  0.27697645  0.72302322  0.72302373  1.0
  O  O21  1  0.52697461  0.52697486  0.97302534  1.0
