# generated using pymatgen
data_ZrGeO4
_symmetry_space_group_name_H-M   'P 1'
_cell_length_a   4.75039079
_cell_length_b   4.75039083
_cell_length_c   3.10852157
_cell_angle_alpha   90.00000102
_cell_angle_beta   90.00000188
_cell_angle_gamma   91.33368677
_symmetry_Int_Tables_number   1
_chemical_formula_structural   ZrGeO4
_chemical_formula_sum   'Zr1 Ge1 O4'
_cell_volume   70.12855625
_cell_formula_units_Z   1
loop_
 _symmetry_equiv_pos_site_id
 _symmetry_equiv_pos_as_xyz
  1  'x, y, z'
loop_
 _atom_site_type_symbol
 _atom_site_label
 _atom_site_symmetry_multiplicity
 _atom_site_fract_x
 _atom_site_fract_y
 _atom_site_fract_z
 _atom_site_occupancy
  Zr  Zr0  1  0.00000000  0.00000000  0.50000000  1.0
  Ge  Ge1  1  0.50000000  0.50000000  0.00000000  1.0
  O  O2  1  0.20983640  0.20983640  0.00000003  1.0
  O  O3  1  0.31647971  0.68352029  0.50000000  1.0
  O  O4  1  0.68352030  0.31647971  0.50000000  1.0
  O  O5  1  0.79016360  0.79016360  0.99999997  1.0
