# generated using pymatgen
data_ZrPtO4
_symmetry_space_group_name_H-M   'P 1'
_cell_length_a   4.78201135
_cell_length_b   4.78201159
_cell_length_c   3.26156552
_cell_angle_alpha   90.00000254
_cell_angle_beta   90.00000242
_cell_angle_gamma   90.78397975
_symmetry_Int_Tables_number   1
_chemical_formula_structural   ZrPtO4
_chemical_formula_sum   'Zr1 Pt1 O4'
_cell_volume   74.57730368
_cell_formula_units_Z   1
loop_
 _symmetry_equiv_pos_site_id
 _symmetry_equiv_pos_as_xyz
  1  'x, y, z'
loop_
 _atom_site_type_symbol
 _atom_site_label
 _atom_site_symmetry_multiplicity
 _atom_site_fract_x
 _atom_site_fract_y
 _atom_site_fract_z
 _atom_site_occupancy
  Zr  Zr0  1  0.00000000  0.00000000  0.50000000  1.0
  Pt  Pt1  1  0.50000000  0.50000000  0.00000000  1.0
  O  O2  1  0.19795670  0.19795680  0.00000006  1.0
  O  O3  1  0.31548116  0.68451899  0.50000000  1.0
  O  O4  1  0.68451884  0.31548101  0.50000000  1.0
  O  O5  1  0.80204330  0.80204320  0.99999994  1.0
