# generated using pymatgen
data_ZrSiO4
_symmetry_space_group_name_H-M   'P 1'
_cell_length_a   4.79638039
_cell_length_b   4.79640905
_cell_length_c   6.34120876
_cell_angle_alpha   112.22224797
_cell_angle_beta   112.22333827
_cell_angle_gamma   89.99996653
_symmetry_Int_Tables_number   1
_chemical_formula_structural   ZrSiO4
_chemical_formula_sum   'Zr2 Si2 O8'
_cell_volume   123.26092570
_cell_formula_units_Z   2
loop_
 _symmetry_equiv_pos_site_id
 _symmetry_equiv_pos_as_xyz
  1  'x, y, z'
loop_
 _atom_site_type_symbol
 _atom_site_label
 _atom_site_symmetry_multiplicity
 _atom_site_fract_x
 _atom_site_fract_y
 _atom_site_fract_z
 _atom_site_occupancy
  Zr  Zr0  1  0.62499041  0.87499558  0.25000212  1.0
  Zr  Zr1  1  0.37500959  0.12500442  0.74999788  1.0
  Si  Si2  1  0.12499019  0.37499577  0.24999643  1.0
  Si  Si3  1  0.87500981  0.62500424  0.75000357  1.0
  O  O4  1  0.30641557  0.45742155  0.09538873  1.0
  O  O5  1  0.63797444  0.80643182  0.59539104  1.0
  O  O6  1  0.95742420  0.28896287  0.59539198  1.0
  O  O7  1  0.78894422  0.13796677  0.09539711  1.0
  O  O8  1  0.21105578  0.86203322  0.90460289  1.0
  O  O9  1  0.04257581  0.71103714  0.40460803  1.0
  O  O10  1  0.36202556  0.19356818  0.40460896  1.0
  O  O11  1  0.69358443  0.54257845  0.90461127  1.0
