# generated using pymatgen
data_ZrSnO4
_symmetry_space_group_name_H-M   'P 1'
_cell_length_a   4.89973516
_cell_length_b   5.90484770
_cell_length_c   5.88068597
_cell_angle_alpha   67.95284482
_cell_angle_beta   90.00000000
_cell_angle_gamma   90.00000000
_symmetry_Int_Tables_number   1
_chemical_formula_structural   ZrSnO4
_chemical_formula_sum   'Zr2 Sn2 O8'
_cell_volume   157.69959342
_cell_formula_units_Z   2
loop_
 _symmetry_equiv_pos_site_id
 _symmetry_equiv_pos_as_xyz
  1  'x, y, z'
loop_
 _atom_site_type_symbol
 _atom_site_label
 _atom_site_symmetry_multiplicity
 _atom_site_fract_x
 _atom_site_fract_y
 _atom_site_fract_z
 _atom_site_occupancy
  Zr  Zr0  1  0.00000001  0.99999998  0.00000000  1.0
  Zr  Zr1  1  0.49999998  0.99999996  0.50000005  1.0
  Sn  Sn2  1  0.50000001  0.50000005  0.99999995  1.0
  Sn  Sn3  1  0.99999999  0.50000003  0.50000000  1.0
  O  O4  1  0.68760937  0.15331295  0.14931765  1.0
  O  O5  1  0.81239063  0.15331297  0.64931764  1.0
  O  O6  1  0.30372218  0.34876684  0.34815784  1.0
  O  O7  1  0.19627784  0.34876682  0.84815783  1.0
  O  O8  1  0.80372218  0.65123316  0.15184217  1.0
  O  O9  1  0.69627783  0.65123317  0.65184217  1.0
  O  O10  1  0.18760936  0.84668705  0.35068235  1.0
  O  O11  1  0.31239063  0.84668703  0.85068235  1.0
