# generated using pymatgen
data_ZrSnO4
_symmetry_space_group_name_H-M   'P 1'
_cell_length_a   4.91905360
_cell_length_b   4.91905368
_cell_length_c   3.26336767
_cell_angle_alpha   90.00000058
_cell_angle_beta   90.00000041
_cell_angle_gamma   89.45994480
_symmetry_Int_Tables_number   1
_chemical_formula_structural   ZrSnO4
_chemical_formula_sum   'Zr1 Sn1 O4'
_cell_volume   78.96048928
_cell_formula_units_Z   1
loop_
 _symmetry_equiv_pos_site_id
 _symmetry_equiv_pos_as_xyz
  1  'x, y, z'
loop_
 _atom_site_type_symbol
 _atom_site_label
 _atom_site_symmetry_multiplicity
 _atom_site_fract_x
 _atom_site_fract_y
 _atom_site_fract_z
 _atom_site_occupancy
  Zr  Zr0  1  0.49999999  0.50000001  0.00000000  1.0
  Sn  Sn1  1  0.00000000  0.00000000  0.50000000  1.0
  O  O2  1  0.19357150  0.19357147  0.99999999  1.0
  O  O3  1  0.30529509  0.69470492  0.50000000  1.0
  O  O4  1  0.69470491  0.30529510  0.50000000  1.0
  O  O5  1  0.80642851  0.80642851  0.00000002  1.0
