# generated using pymatgen
data_ZrTeO4
_symmetry_space_group_name_H-M   'P 1'
_cell_length_a   5.03136432
_cell_length_b   5.03136418
_cell_length_c   3.35681595
_cell_angle_alpha   89.99999793
_cell_angle_beta   90.00000780
_cell_angle_gamma   90.46504458
_symmetry_Int_Tables_number   1
_chemical_formula_structural   ZrTeO4
_chemical_formula_sum   'Zr1 Te1 O4'
_cell_volume   84.97374200
_cell_formula_units_Z   1
loop_
 _symmetry_equiv_pos_site_id
 _symmetry_equiv_pos_as_xyz
  1  'x, y, z'
loop_
 _atom_site_type_symbol
 _atom_site_label
 _atom_site_symmetry_multiplicity
 _atom_site_fract_x
 _atom_site_fract_y
 _atom_site_fract_z
 _atom_site_occupancy
  Zr  Zr0  1  0.00000007  0.00000000  0.50000004  1.0
  Te  Te1  1  0.50000015  0.49999994  0.99999997  1.0
  O  O2  1  0.18876470  0.18876464  0.00000007  1.0
  O  O3  1  0.29809892  0.70190105  0.49999996  1.0
  O  O4  1  0.70190086  0.29809900  0.49999997  1.0
  O  O5  1  0.81123530  0.81123537  0.99999998  1.0
