# generated using pymatgen
data_ZrTiO4
_symmetry_space_group_name_H-M   'P 1'
_cell_length_a   4.82960120
_cell_length_b   5.71498865
_cell_length_c   5.72414033
_cell_angle_alpha   66.73104323
_cell_angle_beta   90.00003271
_cell_angle_gamma   90.00004036
_symmetry_Int_Tables_number   1
_chemical_formula_structural   ZrTiO4
_chemical_formula_sum   'Zr2 Ti2 O8'
_cell_volume   145.14162620
_cell_formula_units_Z   2
loop_
 _symmetry_equiv_pos_site_id
 _symmetry_equiv_pos_as_xyz
  1  'x, y, z'
loop_
 _atom_site_type_symbol
 _atom_site_label
 _atom_site_symmetry_multiplicity
 _atom_site_fract_x
 _atom_site_fract_y
 _atom_site_fract_z
 _atom_site_occupancy
  Zr  Zr0  1  0.00000000  0.99999999  0.00000001  1.0
  Zr  Zr1  1  0.50000000  0.00000001  0.50000000  1.0
  Ti  Ti2  1  0.49999999  0.50000000  0.99999999  1.0
  Ti  Ti3  1  0.00000000  0.50000001  0.49999998  1.0
  O  O4  1  0.68006590  0.16379216  0.13573077  1.0
  O  O5  1  0.81993337  0.16379178  0.63573033  1.0
  O  O6  1  0.29752606  0.36119058  0.33234466  1.0
  O  O7  1  0.20247449  0.36119083  0.83234491  1.0
  O  O8  1  0.79752552  0.63880917  0.16765511  1.0
  O  O9  1  0.70247393  0.63880942  0.66765535  1.0
  O  O10  1  0.18006663  0.83620821  0.36426968  1.0
  O  O11  1  0.31993410  0.83620784  0.86426923  1.0
