# generated using pymatgen
data_ZrTiO4
_symmetry_space_group_name_H-M   'P 1'
_cell_length_a   5.03126827
_cell_length_b   5.03117115
_cell_length_c   6.40391183
_cell_angle_alpha   113.12903237
_cell_angle_beta   113.12998764
_cell_angle_gamma   89.99806944
_symmetry_Int_Tables_number   1
_chemical_formula_structural   ZrTiO4
_chemical_formula_sum   'Zr2 Ti2 O8'
_cell_volume   134.79061391
_cell_formula_units_Z   2
loop_
 _symmetry_equiv_pos_site_id
 _symmetry_equiv_pos_as_xyz
  1  'x, y, z'
loop_
 _atom_site_type_symbol
 _atom_site_label
 _atom_site_symmetry_multiplicity
 _atom_site_fract_x
 _atom_site_fract_y
 _atom_site_fract_z
 _atom_site_occupancy
  Zr  Zr0  1  0.62499470  0.87498019  0.24999463  1.0
  Zr  Zr1  1  0.37500530  0.12501978  0.75000536  1.0
  Ti  Ti2  1  0.12493155  0.37502591  0.24995581  1.0
  Ti  Ti3  1  0.87506843  0.62497413  0.75004420  1.0
  O  O4  1  0.30718618  0.47390518  0.07897935  1.0
  O  O5  1  0.60508321  0.80722815  0.57898606  1.0
  O  O6  1  0.97388422  0.27179729  0.57897498  1.0
  O  O7  1  0.77176262  0.10506239  0.07898113  1.0
  O  O8  1  0.22823764  0.89493789  0.92101905  1.0
  O  O9  1  0.02611586  0.72820248  0.42102483  1.0
  O  O10  1  0.39491651  0.19277190  0.42101379  1.0
  O  O11  1  0.69281377  0.52609471  0.92102081  1.0
