# generated using pymatgen
data_Ag2H4W
_symmetry_space_group_name_H-M   'P 1'
_cell_length_a   5.59152213
_cell_length_b   5.59377685
_cell_length_c   9.38784067
_cell_angle_alpha   90.02213314
_cell_angle_beta   89.97838656
_cell_angle_gamma   150.54232224
_symmetry_Int_Tables_number   1
_chemical_formula_structural   Ag2H4W
_chemical_formula_sum   'Ag4 H8 W2'
_cell_volume   144.40166121
_cell_formula_units_Z   2
loop_
 _symmetry_equiv_pos_site_id
 _symmetry_equiv_pos_as_xyz
  1  'x, y, z'
loop_
 _atom_site_type_symbol
 _atom_site_label
 _atom_site_symmetry_multiplicity
 _atom_site_fract_x
 _atom_site_fract_y
 _atom_site_fract_z
 _atom_site_occupancy
  Ag  Ag0  1  0.17465223  0.82453000  0.09183578  1.0
  Ag  Ag1  1  0.83620209  0.16383326  0.90058796  1.0
  Ag  Ag2  1  0.17472568  0.82440945  0.40896213  1.0
  Ag  Ag3  1  0.83686772  0.16318434  0.59957605  1.0
  H  H4  1  0.86849732  0.13115355  0.36214508  1.0
  H  H5  1  0.10563523  0.89482568  0.61681251  1.0
  H  H6  1  0.10673025  0.89376530  0.88231388  1.0
  H  H7  1  0.86948314  0.13014867  0.13674996  1.0
  H  H8  1  0.04311742  0.95751001  0.25051478  1.0
  H  H9  1  0.96775986  0.03199153  0.75092385  1.0
  H  H10  1  0.50271838  0.49753637  0.08382160  1.0
  H  H11  1  0.50139818  0.49888047  0.41628648  1.0
  W  W12  1  0.58510817  0.41531538  0.74972657  1.0
  W  W13  1  0.42710432  0.57291598  0.24974337  1.0
