# generated using pymatgen
data_Ag2Sb2Ir
_symmetry_space_group_name_H-M   'P 1'
_cell_length_a   5.75123195
_cell_length_b   5.74066364
_cell_length_c   3.55618826
_cell_angle_alpha   105.42762297
_cell_angle_beta   106.46947040
_cell_angle_gamma   92.32505921
_symmetry_Int_Tables_number   1
_chemical_formula_structural   Ag2Sb2Ir
_chemical_formula_sum   'Ag2 Sb2 Ir1'
_cell_volume   107.67868799
_cell_formula_units_Z   1
loop_
 _symmetry_equiv_pos_site_id
 _symmetry_equiv_pos_as_xyz
  1  'x, y, z'
loop_
 _atom_site_type_symbol
 _atom_site_label
 _atom_site_symmetry_multiplicity
 _atom_site_fract_x
 _atom_site_fract_y
 _atom_site_fract_z
 _atom_site_occupancy
  Ag  Ag0  1  0.30970192  0.30463051  0.78051563  1.0
  Ag  Ag1  1  0.69029808  0.69536964  0.21948370  1.0
  Sb  Sb2  1  0.75539792  0.24637554  0.49429473  1.0
  Sb  Sb3  1  0.24460179  0.75362414  0.50570562  1.0
  Ir  Ir4  1  0.00000028  0.00000017  0.00000033  1.0
