# generated using pymatgen
data_Ag5BC2
_symmetry_space_group_name_H-M   'P 1'
_cell_length_a   4.25599080
_cell_length_b   11.26063160
_cell_length_c   5.91030206
_cell_angle_alpha   89.99821341
_cell_angle_beta   68.57583747
_cell_angle_gamma   90.00008328
_symmetry_Int_Tables_number   1
_chemical_formula_structural   Ag5BC2
_chemical_formula_sum   'Ag10 B2 C4'
_cell_volume   263.67988783
_cell_formula_units_Z   2
loop_
 _symmetry_equiv_pos_site_id
 _symmetry_equiv_pos_as_xyz
  1  'x, y, z'
loop_
 _atom_site_type_symbol
 _atom_site_label
 _atom_site_symmetry_multiplicity
 _atom_site_fract_x
 _atom_site_fract_y
 _atom_site_fract_z
 _atom_site_occupancy
  Ag  Ag0  1  0.17667685  0.24994850  0.64437477  1.0
  Ag  Ag1  1  0.82332263  0.74994843  0.35562697  1.0
  Ag  Ag2  1  0.94336720  0.12251139  0.11513495  1.0
  Ag  Ag3  1  0.94328209  0.37753835  0.11531399  1.0
  Ag  Ag4  1  0.05663048  0.62251173  0.88487126  1.0
  Ag  Ag5  1  0.05672085  0.87753879  0.88468018  1.0
  Ag  Ag6  1  0.67686098  0.06973177  0.64354100  1.0
  Ag  Ag7  1  0.67671007  0.43024498  0.64387383  1.0
  Ag  Ag8  1  0.32314135  0.56973097  0.35645560  1.0
  Ag  Ag9  1  0.32328836  0.93024472  0.35612967  1.0
  B  B10  1  0.78454115  0.25001621  0.43118627  1.0
  B  B11  1  0.21545912  0.75002288  0.56881394  1.0
  C  C12  1  0.86164501  0.93947399  0.28105398  1.0
  C  C13  1  0.13835598  0.43947205  0.71894611  1.0
  C  C14  1  0.86163324  0.56053359  0.28103646  1.0
  C  C15  1  0.13836664  0.06053164  0.71896301  1.0
