# generated using pymatgen
data_Al2CuOs
_symmetry_space_group_name_H-M   'P 1'
_cell_length_a   3.93512797
_cell_length_b   3.13874578
_cell_length_c   2.88942051
_cell_angle_alpha   62.97560501
_cell_angle_beta   65.61161041
_cell_angle_gamma   57.86754990
_symmetry_Int_Tables_number   1
_chemical_formula_structural   Al2CuOs
_chemical_formula_sum   'Al2 Cu1 Os1'
_cell_volume   26.21889729
_cell_formula_units_Z   1
loop_
 _symmetry_equiv_pos_site_id
 _symmetry_equiv_pos_as_xyz
  1  'x, y, z'
loop_
 _atom_site_type_symbol
 _atom_site_label
 _atom_site_symmetry_multiplicity
 _atom_site_fract_x
 _atom_site_fract_y
 _atom_site_fract_z
 _atom_site_occupancy
  Al  Al1  1  0.00000000  0.00000000  0.00000000  1.0
  Al  Al2  1  0.48604417  0.60641968  0.42344654  1.0
  Cu  Cu1  1  0.29507732  0.37633958  0.21407619  1.0
  Os  Os1  1  0.67423666  0.77132261  0.75076759  1.0
