# generated using pymatgen
data_Al2FeOs
_symmetry_space_group_name_H-M   'P 1'
_cell_length_a   5.33486652
_cell_length_b   3.92973256
_cell_length_c   3.29476261
_cell_angle_alpha   61.07511520
_cell_angle_beta   74.42610168
_cell_angle_gamma   77.98247528
_symmetry_Int_Tables_number   1
_chemical_formula_structural   Al2FeOs
_chemical_formula_sum   'Al2 Fe1 Os1'
_cell_volume   57.98506530
_cell_formula_units_Z   1
loop_
 _symmetry_equiv_pos_site_id
 _symmetry_equiv_pos_as_xyz
  1  'x, y, z'
loop_
 _atom_site_type_symbol
 _atom_site_label
 _atom_site_symmetry_multiplicity
 _atom_site_fract_x
 _atom_site_fract_y
 _atom_site_fract_z
 _atom_site_occupancy
  Al  Al1  1  0.00000000  0.00000000  0.00000000  1.0
  Al  Al2  1  0.47979981  0.45745713  0.56003839  1.0
  Fe  Fe1  1  0.31566274  0.34115261  0.27447814  1.0
  Os  Os1  1  0.79222608  0.66834474  0.69430596  1.0
