# generated using pymatgen
data_Al2GeTe4
_symmetry_space_group_name_H-M   'P 1'
_cell_length_a   8.44564270
_cell_length_b   8.44564248
_cell_length_c   8.44564178
_cell_angle_alpha   59.78567195
_cell_angle_beta   59.78567278
_cell_angle_gamma   59.78567411
_symmetry_Int_Tables_number   1
_chemical_formula_structural   Al2GeTe4
_chemical_formula_sum   'Al4 Ge2 Te8'
_cell_volume   423.90124380
_cell_formula_units_Z   2
loop_
 _symmetry_equiv_pos_site_id
 _symmetry_equiv_pos_as_xyz
  1  'x, y, z'
loop_
 _atom_site_type_symbol
 _atom_site_label
 _atom_site_symmetry_multiplicity
 _atom_site_fract_x
 _atom_site_fract_y
 _atom_site_fract_z
 _atom_site_occupancy
  Al  Al0  1  0.49999995  0.00000002  0.00000006  1.0
  Al  Al1  1  0.99999993  0.99999994  0.99999993  1.0
  Al  Al2  1  0.00000001  0.49999995  0.00000003  1.0
  Al  Al3  1  0.00000005  0.00000002  0.49999994  1.0
  Ge  Ge4  1  0.62530331  0.62530359  0.62530366  1.0
  Ge  Ge5  1  0.37469684  0.37469655  0.37469650  1.0
  Te  Te6  1  0.76183364  0.21356130  0.76183355  1.0
  Te  Te7  1  0.23816626  0.23816632  0.78643868  1.0
  Te  Te8  1  0.78643895  0.23816625  0.23816623  1.0
  Te  Te9  1  0.23767938  0.23767945  0.23767933  1.0
  Te  Te10  1  0.76183364  0.76183356  0.21356139  1.0
  Te  Te11  1  0.23816624  0.78643880  0.23816632  1.0
  Te  Te12  1  0.21356113  0.76183363  0.76183367  1.0
  Te  Te13  1  0.76232066  0.76232063  0.76232070  1.0
