# generated using pymatgen
data_Al2Ir
_symmetry_space_group_name_H-M   'P 1'
_cell_length_a   3.40172696
_cell_length_b   2.29600453
_cell_length_c   2.76628995
_cell_angle_alpha   66.90023041
_cell_angle_beta   69.70324707
_cell_angle_gamma   72.76337433
_symmetry_Int_Tables_number   1
_chemical_formula_structural   Al2Ir
_chemical_formula_sum   'Al2 Ir1'
_cell_volume   18.31523170
_cell_formula_units_Z   1
loop_
 _symmetry_equiv_pos_site_id
 _symmetry_equiv_pos_as_xyz
  1  'x, y, z'
loop_
 _atom_site_type_symbol
 _atom_site_label
 _atom_site_symmetry_multiplicity
 _atom_site_fract_x
 _atom_site_fract_y
 _atom_site_fract_z
 _atom_site_occupancy
  Al  Al1  1  0.00000000  0.00000000  0.00000000  1.0
  Al  Al2  1  0.35631073  0.35463861  0.39390084  1.0
  Ir  Ir1  1  0.16941008  0.18347391  0.29266611  1.0
