# generated using pymatgen
data_Al2IrOs
_symmetry_space_group_name_H-M   'P 1'
_cell_length_a   2.14986610
_cell_length_b   2.05567884
_cell_length_c   1.49988961
_cell_angle_alpha   67.34945679
_cell_angle_beta   72.49925995
_cell_angle_gamma   60.83284760
_symmetry_Int_Tables_number   1
_chemical_formula_structural   Al2IrOs
_chemical_formula_sum   'Al2 Ir1 Os1'
_cell_volume   5.28891697
_cell_formula_units_Z   1
loop_
 _symmetry_equiv_pos_site_id
 _symmetry_equiv_pos_as_xyz
  1  'x, y, z'
loop_
 _atom_site_type_symbol
 _atom_site_label
 _atom_site_symmetry_multiplicity
 _atom_site_fract_x
 _atom_site_fract_y
 _atom_site_fract_z
 _atom_site_occupancy
  Al  Al1  1  0.00000000  0.00000000  0.00000000  1.0
  Al  Al2  1  0.43631101  0.46290776  0.56580842  1.0
  Ir  Ir1  1  0.24521521  0.16740447  0.20814109  1.0
  Os  Os1  1  0.85360378  0.67845964  0.75633913  1.0
