# generated using pymatgen
data_Al2Si3Se
_symmetry_space_group_name_H-M   'P 1'
_cell_length_a   5.63701163
_cell_length_b   5.63702192
_cell_length_c   3.67753523
_cell_angle_alpha   89.99959179
_cell_angle_beta   90.00040465
_cell_angle_gamma   98.88154794
_symmetry_Int_Tables_number   1
_chemical_formula_structural   Al2Si3Se
_chemical_formula_sum   'Al2 Si3 Se1'
_cell_volume   115.45604536
_cell_formula_units_Z   1
loop_
 _symmetry_equiv_pos_site_id
 _symmetry_equiv_pos_as_xyz
  1  'x, y, z'
loop_
 _atom_site_type_symbol
 _atom_site_label
 _atom_site_symmetry_multiplicity
 _atom_site_fract_x
 _atom_site_fract_y
 _atom_site_fract_z
 _atom_site_occupancy
  Al  Al0  1  0.49999999  0.99999996  0.50000003  1.0
  Al  Al1  1  0.00000004  0.49999995  0.49999998  1.0
  Si  Si2  1  0.69937672  0.30062294  0.00000150  1.0
  Si  Si3  1  0.30062322  0.69937704  0.99999855  1.0
  Si  Si4  1  0.50000002  0.49999997  0.49999999  1.0
  Se  Se5  1  0.00000002  0.00000014  0.99999994  1.0
