# generated using pymatgen
data_Al2SbN
_symmetry_space_group_name_H-M   'P 1'
_cell_length_a   3.10675153
_cell_length_b   3.10676473
_cell_length_c   14.39623627
_cell_angle_alpha   89.99992234
_cell_angle_beta   89.99993640
_cell_angle_gamma   120.02263814
_symmetry_Int_Tables_number   1
_chemical_formula_structural   Al2SbN
_chemical_formula_sum   'Al4 Sb2 N2'
_cell_volume   120.30823881
_cell_formula_units_Z   2
loop_
 _symmetry_equiv_pos_site_id
 _symmetry_equiv_pos_as_xyz
  1  'x, y, z'
loop_
 _atom_site_type_symbol
 _atom_site_label
 _atom_site_symmetry_multiplicity
 _atom_site_fract_x
 _atom_site_fract_y
 _atom_site_fract_z
 _atom_site_occupancy
  Al  Al0  1  0.33324902  0.66675206  0.33676044  1.0
  Al  Al1  1  0.66675106  0.33324795  0.66323958  1.0
  Al  Al2  1  0.66675588  0.33325117  0.83673310  1.0
  Al  Al3  1  0.33324403  0.66674885  0.16326675  1.0
  Sb  Sb4  1  0.00000002  0.00000000  0.50000000  1.0
  Sb  Sb5  1  0.99999996  0.00000000  0.00000004  1.0
  N  N6  1  0.33333333  0.66666667  0.75007805  1.0
  N  N7  1  0.66666667  0.33333333  0.24992204  1.0
