# generated using pymatgen
data_Al4MoP6
_symmetry_space_group_name_H-M   'P 1'
_cell_length_a   6.40861018
_cell_length_b   6.40861016
_cell_length_c   16.99236738
_cell_angle_alpha   89.99997570
_cell_angle_beta   90.00002477
_cell_angle_gamma   148.69592308
_symmetry_Int_Tables_number   1
_chemical_formula_structural   Al4MoP6
_chemical_formula_sum   'Al8 Mo2 P12'
_cell_volume   362.60513403
_cell_formula_units_Z   2
loop_
 _symmetry_equiv_pos_site_id
 _symmetry_equiv_pos_as_xyz
  1  'x, y, z'
loop_
 _atom_site_type_symbol
 _atom_site_label
 _atom_site_symmetry_multiplicity
 _atom_site_fract_x
 _atom_site_fract_y
 _atom_site_fract_z
 _atom_site_occupancy
  Al  Al0  1  0.14322955  0.85677045  0.04032296  1.0
  Al  Al1  1  0.85677761  0.14322239  0.95967382  1.0
  Al  Al2  1  0.14322884  0.85677116  0.45967487  1.0
  Al  Al3  1  0.85677826  0.14322173  0.54032826  1.0
  Al  Al4  1  0.58585384  0.41414621  0.62969935  1.0
  Al  Al5  1  0.41414401  0.58585592  0.37030684  1.0
  Al  Al6  1  0.41414374  0.58585631  0.12969240  1.0
  Al  Al7  1  0.58585413  0.41414582  0.87030147  1.0
  Mo  Mo8  1  0.32692286  0.67307715  0.75000103  1.0
  Mo  Mo9  1  0.67309746  0.32690254  0.24999897  1.0
  P  P10  1  0.49999577  0.50000423  0.49999455  1.0
  P  P11  1  0.49999561  0.50000439  0.00000544  1.0
  P  P12  1  0.93974209  0.06025788  0.82766272  1.0
  P  P13  1  0.06025767  0.93974237  0.17235828  1.0
  P  P14  1  0.06025706  0.93974289  0.32763879  1.0
  P  P15  1  0.93974289  0.06025717  0.67233994  1.0
  P  P16  1  0.23367030  0.76632970  0.90052998  1.0
  P  P17  1  0.76631016  0.23368985  0.09950910  1.0
  P  P18  1  0.76631154  0.23368843  0.40049082  1.0
  P  P19  1  0.23366910  0.76633092  0.59947037  1.0
  P  P20  1  0.67994494  0.32005508  0.75000067  1.0
  P  P21  1  0.32007258  0.67992741  0.24999937  1.0
