# generated using pymatgen
data_AlAs4Au3
_symmetry_space_group_name_H-M   'P 1'
_cell_length_a   7.17341377
_cell_length_b   7.17198460
_cell_length_c   7.15147695
_cell_angle_alpha   89.99985900
_cell_angle_beta   89.99554925
_cell_angle_gamma   89.98982947
_symmetry_Int_Tables_number   1
_chemical_formula_structural   AlAs4Au3
_chemical_formula_sum   'Al2 As8 Au6'
_cell_volume   367.92641222
_cell_formula_units_Z   2
loop_
 _symmetry_equiv_pos_site_id
 _symmetry_equiv_pos_as_xyz
  1  'x, y, z'
loop_
 _atom_site_type_symbol
 _atom_site_label
 _atom_site_symmetry_multiplicity
 _atom_site_fract_x
 _atom_site_fract_y
 _atom_site_fract_z
 _atom_site_occupancy
  Al  Al0  1  0.00007585  0.00007963  0.99985639  1.0
  Al  Al1  1  0.49993618  0.49991743  0.50013577  1.0
  As  As2  1  0.24984335  0.25015310  0.24999369  1.0
  As  As3  1  0.75018635  0.74981485  0.75000821  1.0
  As  As4  1  0.75016166  0.74981916  0.24998535  1.0
  As  As5  1  0.75019637  0.25022511  0.75002897  1.0
  As  As6  1  0.24981460  0.25017657  0.75003215  1.0
  As  As7  1  0.24980825  0.74982264  0.25000108  1.0
  As  As8  1  0.24981448  0.74978798  0.75000272  1.0
  As  As9  1  0.75016263  0.25019370  0.24994523  1.0
  Au  Au10  1  0.24990993  0.00000626  0.50003073  1.0
  Au  Au11  1  0.75010374  0.00003818  0.50001740  1.0
  Au  Au12  1  0.49996803  0.25011154  0.99996636  1.0
  Au  Au13  1  0.49998026  0.74987646  0.99998188  1.0
  Au  Au14  1  0.00002517  0.49997397  0.24998499  1.0
  Au  Au15  1  0.00001315  0.50000341  0.75002907  1.0
