# generated using pymatgen
data_AlAuN2
_symmetry_space_group_name_H-M   'P 1'
_cell_length_a   5.83763988
_cell_length_b   6.64227883
_cell_length_c   9.05031726
_cell_angle_alpha   56.94804814
_cell_angle_beta   111.18917939
_cell_angle_gamma   104.69417457
_symmetry_Int_Tables_number   1
_chemical_formula_structural   AlAuN2
_chemical_formula_sum   'Al4 Au4 N8'
_cell_volume   273.53519461
_cell_formula_units_Z   4
loop_
 _symmetry_equiv_pos_site_id
 _symmetry_equiv_pos_as_xyz
  1  'x, y, z'
loop_
 _atom_site_type_symbol
 _atom_site_label
 _atom_site_symmetry_multiplicity
 _atom_site_fract_x
 _atom_site_fract_y
 _atom_site_fract_z
 _atom_site_occupancy
  Al  Al0  1  0.30098390  0.62210706  0.69076766  1.0
  Al  Al1  1  0.69901591  0.37789311  0.30923177  1.0
  Al  Al2  1  0.78208948  0.36855748  0.80493203  1.0
  Al  Al3  1  0.21791101  0.63144280  0.19506884  1.0
  Au  Au4  1  0.23368824  0.32170337  0.56609949  1.0
  Au  Au5  1  0.76631213  0.67829619  0.43390101  1.0
  Au  Au6  1  0.01423915  0.82043823  0.82315913  1.0
  Au  Au7  1  0.98576092  0.17956184  0.17684119  1.0
  N  N8  1  0.42349778  0.91582968  0.51766876  1.0
  N  N9  1  0.57650075  0.08417013  0.48232902  1.0
  N  N10  1  0.95224713  0.08556971  0.98761054  1.0
  N  N11  1  0.04775297  0.91443025  0.01238985  1.0
  N  N12  1  0.46354485  0.35929258  0.79014021  1.0
  N  N13  1  0.53645540  0.64070747  0.20986015  1.0
  N  N14  1  0.99264924  0.63264205  0.69391926  1.0
  N  N15  1  0.00735112  0.36735804  0.30608110  1.0
