# generated using pymatgen
data_AlBiO3
_symmetry_space_group_name_H-M   'P 1'
_cell_length_a   5.38884556
_cell_length_b   5.38884556
_cell_length_c   9.01693897
_cell_angle_alpha   89.99999954
_cell_angle_beta   89.99999983
_cell_angle_gamma   120.00000374
_symmetry_Int_Tables_number   1
_chemical_formula_structural   AlBiO3
_chemical_formula_sum   'Al4 Bi4 O12'
_cell_volume   226.76771295
_cell_formula_units_Z   4
loop_
 _symmetry_equiv_pos_site_id
 _symmetry_equiv_pos_as_xyz
  1  'x, y, z'
loop_
 _atom_site_type_symbol
 _atom_site_label
 _atom_site_symmetry_multiplicity
 _atom_site_fract_x
 _atom_site_fract_y
 _atom_site_fract_z
 _atom_site_occupancy
  Al  Al0  1  0.33333333  0.66666667  0.88720263  1.0
  Al  Al1  1  0.66666667  0.33333333  0.38720263  1.0
  Al  Al2  1  0.66666667  0.33333333  0.11279737  1.0
  Al  Al3  1  0.33333333  0.66666667  0.61279737  1.0
  Bi  Bi4  1  0.66666667  0.33333333  0.75000000  1.0
  Bi  Bi5  1  0.33333333  0.66666667  0.25000000  1.0
  Bi  Bi6  1  0.99999999  0.99999999  0.50000000  1.0
  Bi  Bi7  1  0.99999999  0.00000000  0.00000000  1.0
  O  O8  1  0.65457584  0.82728791  0.75000000  1.0
  O  O9  1  0.82728794  0.65457587  0.25000000  1.0
  O  O10  1  0.82728790  0.17271213  0.25000000  1.0
  O  O11  1  0.17271211  0.82728786  0.75000000  1.0
  O  O12  1  0.17271207  0.34542413  0.75000000  1.0
  O  O13  1  0.34542418  0.17271210  0.25000000  1.0
  O  O14  1  0.50000000  0.00000001  0.50000000  1.0
  O  O15  1  0.50000000  0.50000000  0.00000000  1.0
  O  O16  1  0.50000000  0.99999999  0.00000000  1.0
  O  O17  1  0.50000000  0.50000001  0.50000000  1.0
  O  O18  1  0.00000000  0.50000001  0.50000000  1.0
  O  O19  1  0.00000000  0.49999999  0.00000000  1.0
