# generated using pymatgen
data_AlBN2
_symmetry_space_group_name_H-M   'P 1'
_cell_length_a   5.27232428
_cell_length_b   5.27227169
_cell_length_c   9.07641871
_cell_angle_alpha   85.56123421
_cell_angle_beta   85.56063574
_cell_angle_gamma   84.29466458
_symmetry_Int_Tables_number   1
_chemical_formula_structural   AlBN2
_chemical_formula_sum   'Al8 B8 N16'
_cell_volume   249.67686575
_cell_formula_units_Z   8
loop_
 _symmetry_equiv_pos_site_id
 _symmetry_equiv_pos_as_xyz
  1  'x, y, z'
loop_
 _atom_site_type_symbol
 _atom_site_label
 _atom_site_symmetry_multiplicity
 _atom_site_fract_x
 _atom_site_fract_y
 _atom_site_fract_z
 _atom_site_occupancy
  Al  Al0  1  0.61658672  0.84564027  0.39710371  1.0
  Al  Al1  1  0.15436842  0.38343762  0.10289874  1.0
  Al  Al2  1  0.38341349  0.15436043  0.60289613  1.0
  Al  Al3  1  0.84563190  0.61656283  0.89710195  1.0
  Al  Al4  1  0.33095567  0.88191884  0.11764578  1.0
  Al  Al5  1  0.11808814  0.66904356  0.38234876  1.0
  Al  Al6  1  0.66904416  0.11808123  0.88235440  1.0
  Al  Al7  1  0.88191199  0.33095661  0.61765103  1.0
  B  B8  1  0.44822042  0.29772534  0.34585981  1.0
  B  B9  1  0.70226375  0.55177236  0.15413087  1.0
  B  B10  1  0.55177947  0.70227423  0.65413982  1.0
  B  B11  1  0.29773627  0.44822744  0.84586942  1.0
  B  B12  1  0.76104532  0.05434120  0.14745218  1.0
  B  B13  1  0.94565091  0.23896061  0.35254206  1.0
  B  B14  1  0.23895485  0.94565873  0.85254811  1.0
  B  B15  1  0.05434903  0.76103943  0.64745768  1.0
  N  N16  1  0.50064585  0.08144869  0.24208780  1.0
  N  N17  1  0.91853109  0.49936305  0.25792393  1.0
  N  N18  1  0.49935426  0.91855131  0.75791266  1.0
  N  N19  1  0.08146810  0.50063719  0.74207579  1.0
  N  N20  1  0.44018039  0.55978297  0.24999093  1.0
  N  N21  1  0.55981900  0.44021616  0.75000851  1.0
  N  N22  1  0.99704428  0.00295956  0.25000110  1.0
  N  N23  1  0.00295586  0.99704061  0.74999885  1.0
  N  N24  1  0.70457710  0.82467773  0.05187730  1.0
  N  N25  1  0.17531203  0.29542284  0.44811609  1.0
  N  N26  1  0.29542317  0.17532191  0.94812224  1.0
  N  N27  1  0.82468847  0.70457693  0.55188445  1.0
  N  N28  1  0.67620658  0.21694097  0.46009893  1.0
  N  N29  1  0.78306486  0.32378189  0.03990256  1.0
  N  N30  1  0.32379324  0.78305899  0.53990125  1.0
  N  N31  1  0.21693519  0.67621846  0.96009715  1.0
