# generated using pymatgen
data_AlCo3C
_symmetry_space_group_name_H-M   'P 1'
_cell_length_a   2.81857562
_cell_length_b   4.10181808
_cell_length_c   3.55562139
_cell_angle_alpha   100.96353149
_cell_angle_beta   100.98954010
_cell_angle_gamma   92.86351013
_symmetry_Int_Tables_number   1
_chemical_formula_structural   AlCo3C
_chemical_formula_sum   'Al1 Co3 C1'
_cell_volume   39.45837138
_cell_formula_units_Z   1
loop_
 _symmetry_equiv_pos_site_id
 _symmetry_equiv_pos_as_xyz
  1  'x, y, z'
loop_
 _atom_site_type_symbol
 _atom_site_label
 _atom_site_symmetry_multiplicity
 _atom_site_fract_x
 _atom_site_fract_y
 _atom_site_fract_z
 _atom_site_occupancy
  Al  Al1  1  0.00000000  0.00000000  0.00000000  1.0
  Co  Co1  1  0.00000000  0.57121062  0.59341198  1.0
  Co  Co2  1  0.34968928  0.00000000  0.19352281  1.0
  Co  Co3  1  0.51802987  0.50566787  0.00000000  1.0
  C  C1  1  0.70397866  0.78237838  0.29944438  1.0
