# generated using pymatgen
data_AlCrRu2
_symmetry_space_group_name_H-M   'P 1'
_cell_length_a   3.44120836
_cell_length_b   2.34329176
_cell_length_c   3.37161326
_cell_angle_alpha   61.78885269
_cell_angle_beta   55.31077957
_cell_angle_gamma   68.03203583
_symmetry_Int_Tables_number   1
_chemical_formula_structural   AlCrRu2
_chemical_formula_sum   'Al1 Cr1 Ru2'
_cell_volume   19.49156556
_cell_formula_units_Z   1
loop_
 _symmetry_equiv_pos_site_id
 _symmetry_equiv_pos_as_xyz
  1  'x, y, z'
loop_
 _atom_site_type_symbol
 _atom_site_label
 _atom_site_symmetry_multiplicity
 _atom_site_fract_x
 _atom_site_fract_y
 _atom_site_fract_z
 _atom_site_occupancy
  Al  Al1  1  0.23109263  0.31286815  0.28109661  1.0
  Cr  Cr1  1  0.78118217  0.69586658  0.77743530  1.0
  Ru  Ru1  1  0.00000000  0.00000000  0.00000000  1.0
  Ru  Ru2  1  0.64846230  0.47017172  0.64826953  1.0
