# generated using pymatgen
data_AlCr3B5
_symmetry_space_group_name_H-M   'P 1'
_cell_length_a   2.22789407
_cell_length_b   2.49157858
_cell_length_c   9.36208916
_cell_angle_alpha   66.74005127
_cell_angle_beta   84.47014618
_cell_angle_gamma   85.60567474
_symmetry_Int_Tables_number   1
_chemical_formula_structural   AlCr3B5
_chemical_formula_sum   'Al1 Cr3 B5'
_cell_volume   47.48034721
_cell_formula_units_Z   1
loop_
 _symmetry_equiv_pos_site_id
 _symmetry_equiv_pos_as_xyz
  1  'x, y, z'
loop_
 _atom_site_type_symbol
 _atom_site_label
 _atom_site_symmetry_multiplicity
 _atom_site_fract_x
 _atom_site_fract_y
 _atom_site_fract_z
 _atom_site_occupancy
  Al  Al1  1  0.65438437  0.45684353  0.59996432  1.0
  Cr  Cr1  1  0.00000000  0.00000000  0.51715875  1.0
  Cr  Cr2  1  0.00000000  0.00000000  0.36773169  1.0
  Cr  Cr3  1  0.00000000  0.61307621  0.11029965  1.0
  B  B1  1  0.30761826  0.00000000  0.00000000  1.0
  B  B2  1  0.48994321  0.66985285  0.22693953  1.0
  B  B3  1  0.55702579  0.10161930  0.80795920  1.0
  B  B4  1  0.63634914  0.72896951  0.73008317  1.0
  B  B5  1  0.00000000  0.00000000  0.00000000  1.0
