# generated using pymatgen
data_AlFe3C
_symmetry_space_group_name_H-M   'P 1'
_cell_length_a   2.44156051
_cell_length_b   3.50025582
_cell_length_c   2.88469815
_cell_angle_alpha   96.88548279
_cell_angle_beta   86.07658386
_cell_angle_gamma   97.74758148
_symmetry_Int_Tables_number   1
_chemical_formula_structural   AlFe3C
_chemical_formula_sum   'Al1 Fe3 C1'
_cell_volume   24.21741047
_cell_formula_units_Z   1
loop_
 _symmetry_equiv_pos_site_id
 _symmetry_equiv_pos_as_xyz
  1  'x, y, z'
loop_
 _atom_site_type_symbol
 _atom_site_label
 _atom_site_symmetry_multiplicity
 _atom_site_fract_x
 _atom_site_fract_y
 _atom_site_fract_z
 _atom_site_occupancy
  Al  Al1  1  0.00000000  0.00000000  0.00000000  1.0
  Fe  Fe1  1  0.00000000  0.65490973  0.49011564  1.0
  Fe  Fe2  1  0.29387245  0.52598906  0.00000000  1.0
  Fe  Fe3  1  0.77306437  0.00000000  0.31955832  1.0
  C  C1  1  0.76477981  0.62525278  0.42726046  1.0
