# generated using pymatgen
data_AlGaAs2
_symmetry_space_group_name_H-M   'P 1'
_cell_length_a   2.92755060
_cell_length_b   5.17532041
_cell_length_c   5.17526128
_cell_angle_alpha   91.42132044
_cell_angle_beta   90.00347163
_cell_angle_gamma   89.99715133
_symmetry_Int_Tables_number   1
_chemical_formula_structural   AlGaAs2
_chemical_formula_sum   'Al1 Ga1 As2'
_cell_volume   78.38632283
_cell_formula_units_Z   1
loop_
 _symmetry_equiv_pos_site_id
 _symmetry_equiv_pos_as_xyz
  1  'x, y, z'
loop_
 _atom_site_type_symbol
 _atom_site_label
 _atom_site_symmetry_multiplicity
 _atom_site_fract_x
 _atom_site_fract_y
 _atom_site_fract_z
 _atom_site_occupancy
  Al  Al0  1  0.49999957  0.44884422  0.55120908  1.0
  Ga  Ga1  1  0.00000136  0.94393641  0.05602261  1.0
  As  As2  1  0.49999061  0.94853360  0.55626822  1.0
  As  As3  1  0.50000846  0.44368478  0.05150208  1.0
