# generated using pymatgen
data_AlN
_symmetry_space_group_name_H-M   'P 1'
_cell_length_a   1.15898418
_cell_length_b   1.76086175
_cell_length_c   1.39548278
_cell_angle_alpha   41.27099609
_cell_angle_beta   45.64737320
_cell_angle_gamma   48.87487411
_symmetry_Int_Tables_number   1
_chemical_formula_structural   AlN
_chemical_formula_sum   'Al1 N1'
_cell_volume   1.28934433
_cell_formula_units_Z   1
loop_
 _symmetry_equiv_pos_site_id
 _symmetry_equiv_pos_as_xyz
  1  'x, y, z'
loop_
 _atom_site_type_symbol
 _atom_site_label
 _atom_site_symmetry_multiplicity
 _atom_site_fract_x
 _atom_site_fract_y
 _atom_site_fract_z
 _atom_site_occupancy
  Al  Al1  1  0.46826085  0.39934006  0.42567310  1.0
  N  N1  1  0.00000000  0.00000000  0.00000000  1.0
