# generated using pymatgen
data_AlV3O6
_symmetry_space_group_name_H-M   'P 1'
_cell_length_a   5.29509784
_cell_length_b   5.29501416
_cell_length_c   5.29491972
_cell_angle_alpha   60.00001622
_cell_angle_beta   59.99940303
_cell_angle_gamma   59.99818194
_symmetry_Int_Tables_number   1
_chemical_formula_structural   AlV3O6
_chemical_formula_sum   'Al1 V3 O6'
_cell_volume   104.97300348
_cell_formula_units_Z   1
loop_
 _symmetry_equiv_pos_site_id
 _symmetry_equiv_pos_as_xyz
  1  'x, y, z'
loop_
 _atom_site_type_symbol
 _atom_site_label
 _atom_site_symmetry_multiplicity
 _atom_site_fract_x
 _atom_site_fract_y
 _atom_site_fract_z
 _atom_site_occupancy
  Al  Al0  1  0.49999936  0.50000019  0.50000121  1.0
  V  V1  1  0.25000224  0.24999988  0.24999222  1.0
  V  V2  1  0.74999332  0.75000628  0.75000284  1.0
  V  V3  1  0.00000301  0.99999955  0.99999838  1.0
  O  O4  1  0.74753637  0.25246446  0.25246630  1.0
  O  O5  1  0.25246337  0.74753452  0.74753657  1.0
  O  O6  1  0.74753510  0.25246004  0.74753803  1.0
  O  O7  1  0.25246583  0.74753750  0.25246330  1.0
  O  O8  1  0.74753152  0.74753224  0.25246548  1.0
  O  O9  1  0.25246987  0.25246536  0.74753567  1.0
