# generated using pymatgen
data_AlVOs2
_symmetry_space_group_name_H-M   'P 1'
_cell_length_a   3.89990473
_cell_length_b   2.42486310
_cell_length_c   4.15466118
_cell_angle_alpha   60.85459518
_cell_angle_beta   66.59980774
_cell_angle_gamma   60.02085114
_symmetry_Int_Tables_number   1
_chemical_formula_structural   AlVOs2
_chemical_formula_sum   'Al1 V1 Os2'
_cell_volume   29.10322284
_cell_formula_units_Z   1
loop_
 _symmetry_equiv_pos_site_id
 _symmetry_equiv_pos_as_xyz
  1  'x, y, z'
loop_
 _atom_site_type_symbol
 _atom_site_label
 _atom_site_symmetry_multiplicity
 _atom_site_fract_x
 _atom_site_fract_y
 _atom_site_fract_z
 _atom_site_occupancy
  Al  Al1  1  0.18669820  0.17762232  0.20235035  1.0
  V  V1  1  0.66577834  0.74865520  0.71118408  1.0
  Os  Os1  1  0.58272010  0.58024621  0.49925551  1.0
  Os  Os2  1  0.93181080  0.00000000  0.00000000  1.0
