# generated using pymatgen
data_AlVRu2
_symmetry_space_group_name_H-M   'P 1'
_cell_length_a   3.91125107
_cell_length_b   5.05791903
_cell_length_c   4.61244535
_cell_angle_alpha   58.30569839
_cell_angle_beta   68.75993347
_cell_angle_gamma   65.03314972
_symmetry_Int_Tables_number   1
_chemical_formula_structural   AlVRu2
_chemical_formula_sum   'Al1 V1 Ru2'
_cell_volume   69.20592255
_cell_formula_units_Z   1
loop_
 _symmetry_equiv_pos_site_id
 _symmetry_equiv_pos_as_xyz
  1  'x, y, z'
loop_
 _atom_site_type_symbol
 _atom_site_label
 _atom_site_symmetry_multiplicity
 _atom_site_fract_x
 _atom_site_fract_y
 _atom_site_fract_z
 _atom_site_occupancy
  Al  Al1  1  0.28274381  0.31946671  0.32229221  1.0
  V  V1  1  0.58531690  0.68417490  0.59912574  1.0
  Ru  Ru1  1  0.00000000  0.00000000  0.00000000  1.0
  Ru  Ru2  1  0.49004483  0.48554686  0.47288856  1.0
