# generated using pymatgen
data_As2RhN4
_symmetry_space_group_name_H-M   'P 1'
_cell_length_a   6.08509423
_cell_length_b   6.08509401
_cell_length_c   6.08509471
_cell_angle_alpha   59.99998725
_cell_angle_beta   59.99998868
_cell_angle_gamma   59.99998792
_symmetry_Int_Tables_number   1
_chemical_formula_structural   As2RhN4
_chemical_formula_sum   'As4 Rh2 N8'
_cell_volume   159.32606332
_cell_formula_units_Z   2
loop_
 _symmetry_equiv_pos_site_id
 _symmetry_equiv_pos_as_xyz
  1  'x, y, z'
loop_
 _atom_site_type_symbol
 _atom_site_label
 _atom_site_symmetry_multiplicity
 _atom_site_fract_x
 _atom_site_fract_y
 _atom_site_fract_z
 _atom_site_occupancy
  As  As0  1  0.62499958  0.62499956  0.62499957  1.0
  As  As1  1  0.12500128  0.62499957  0.62499957  1.0
  As  As2  1  0.62499957  0.62499957  0.12500130  1.0
  As  As3  1  0.62499957  0.12500129  0.62499957  1.0
  Rh  Rh4  1  0.24999994  0.24999997  0.24999992  1.0
  Rh  Rh5  1  0.00000006  0.00000002  0.00000007  1.0
  N  N6  1  0.38610550  0.84168343  0.38610545  1.0
  N  N7  1  0.86389522  0.86389525  0.40831447  1.0
  N  N8  1  0.86389526  0.86389527  0.86389523  1.0
  N  N9  1  0.40831449  0.86389521  0.86389523  1.0
  N  N10  1  0.38610541  0.38610542  0.38610549  1.0
  N  N11  1  0.84168343  0.38610550  0.38610548  1.0
  N  N12  1  0.86389521  0.40831449  0.86389522  1.0
  N  N13  1  0.38610547  0.38610546  0.84168343  1.0
