# generated using pymatgen
data_AsAuO2
_symmetry_space_group_name_H-M   'P 1'
_cell_length_a   3.44398237
_cell_length_b   8.99260528
_cell_length_c   8.79128788
_cell_angle_alpha   75.36683812
_cell_angle_beta   78.79642851
_cell_angle_gamma   69.93827291
_symmetry_Int_Tables_number   1
_chemical_formula_structural   AsAuO2
_chemical_formula_sum   'As4 Au4 O8'
_cell_volume   245.71196796
_cell_formula_units_Z   4
loop_
 _symmetry_equiv_pos_site_id
 _symmetry_equiv_pos_as_xyz
  1  'x, y, z'
loop_
 _atom_site_type_symbol
 _atom_site_label
 _atom_site_symmetry_multiplicity
 _atom_site_fract_x
 _atom_site_fract_y
 _atom_site_fract_z
 _atom_site_occupancy
  As  As0  1  0.33486479  0.22145694  0.47436681  1.0
  As  As1  1  0.28475013  0.43115794  0.75226025  1.0
  As  As2  1  0.73782990  0.54789482  0.21959010  1.0
  As  As3  1  0.68445211  0.75851662  0.49728420  1.0
  Au  Au4  1  0.33118457  0.02210747  0.84846704  1.0
  Au  Au5  1  0.71632319  0.95639484  0.12523866  1.0
  Au  Au6  1  0.09500494  0.75724272  0.85629243  1.0
  Au  Au7  1  0.92482159  0.22433054  0.11473019  1.0
  O  O8  1  0.46319608  0.67614751  0.35993878  1.0
  O  O9  1  0.17730404  0.42039202  0.33917161  1.0
  O  O10  1  0.84271659  0.56031073  0.63369614  1.0
  O  O11  1  0.55797624  0.30330951  0.61147255  1.0
  O  O12  1  0.84485771  0.15370776  0.35320100  1.0
  O  O13  1  0.99321546  0.27976089  0.87029161  1.0
  O  O14  1  0.17382758  0.82758760  0.61768070  1.0
  O  O15  1  0.03006308  0.69901608  0.10070191  1.0
