# generated using pymatgen
data_B2H
_symmetry_space_group_name_H-M   'P 1'
_cell_length_a   2.32025242
_cell_length_b   2.22636223
_cell_length_c   2.37254786
_cell_angle_alpha   98.34905243
_cell_angle_beta   102.88122559
_cell_angle_gamma   123.34432220
_symmetry_Int_Tables_number   1
_chemical_formula_structural   B2H
_chemical_formula_sum   'B2 H1'
_cell_volume   9.42587913
_cell_formula_units_Z   1
loop_
 _symmetry_equiv_pos_site_id
 _symmetry_equiv_pos_as_xyz
  1  'x, y, z'
loop_
 _atom_site_type_symbol
 _atom_site_label
 _atom_site_symmetry_multiplicity
 _atom_site_fract_x
 _atom_site_fract_y
 _atom_site_fract_z
 _atom_site_occupancy
  B  B1  1  0.28190619  0.70164347  0.65129793  1.0
  B  B2  1  0.71898615  0.42945105  0.26822650  1.0
  H  H1  1  0.00000000  0.00000000  0.00000000  1.0
