# generated using pymatgen
data_B2HW2
_symmetry_space_group_name_H-M   'P 1'
_cell_length_a   1.43163276
_cell_length_b   3.06893992
_cell_length_c   3.66613078
_cell_angle_alpha   72.63840485
_cell_angle_beta   72.40522003
_cell_angle_gamma   72.95449066
_symmetry_Int_Tables_number   1
_chemical_formula_structural   B2HW2
_chemical_formula_sum   'B2 H1 W2'
_cell_volume   14.28524602
_cell_formula_units_Z   1
loop_
 _symmetry_equiv_pos_site_id
 _symmetry_equiv_pos_as_xyz
  1  'x, y, z'
loop_
 _atom_site_type_symbol
 _atom_site_label
 _atom_site_symmetry_multiplicity
 _atom_site_fract_x
 _atom_site_fract_y
 _atom_site_fract_z
 _atom_site_occupancy
  B  B1  1  0.51082700  0.72213370  0.13376021  1.0
  B  B2  1  0.43618008  0.23331314  0.77762407  1.0
  H  H1  1  0.00000000  0.00000000  0.00000000  1.0
  W  W1  1  0.83994097  0.63619733  0.61060452  1.0
  W  W2  1  0.23600790  0.42324370  0.26273936  1.0
