# generated using pymatgen
data_B2Mo
_symmetry_space_group_name_H-M   'P 1'
_cell_length_a   2.38174319
_cell_length_b   6.03340960
_cell_length_c   4.93850374
_cell_angle_alpha   22.54920387
_cell_angle_beta   13.10006428
_cell_angle_gamma   25.50003433
_symmetry_Int_Tables_number   1
_chemical_formula_structural   B2Mo
_chemical_formula_sum   'B4 Mo2'
_cell_volume   6.16426751
_cell_formula_units_Z   2
loop_
 _symmetry_equiv_pos_site_id
 _symmetry_equiv_pos_as_xyz
  1  'x, y, z'
loop_
 _atom_site_type_symbol
 _atom_site_label
 _atom_site_symmetry_multiplicity
 _atom_site_fract_x
 _atom_site_fract_y
 _atom_site_fract_z
 _atom_site_occupancy
  B  B1  1  0.82091427  0.62957370  0.79338372  1.0
  B  B2  1  0.26755920  0.23162144  0.22145310  1.0
  B  B3  1  0.28746486  0.23653126  0.39441800  1.0
  B  B4  1  0.71853507  0.50701964  0.52761179  1.0
  Mo  Mo1  1  0.76651770  0.88920557  0.89496559  1.0
  Mo  Mo2  1  0.00000000  0.15570965  0.00000000  1.0
