# generated using pymatgen
data_B2Os
_symmetry_space_group_name_H-M   'P 1'
_cell_length_a   1.93627870
_cell_length_b   3.04606938
_cell_length_c   4.43371677
_cell_angle_alpha   87.62760925
_cell_angle_beta   80.55775452
_cell_angle_gamma   97.77341461
_symmetry_Int_Tables_number   1
_chemical_formula_structural   B2Os
_chemical_formula_sum   'B4 Os2'
_cell_volume   25.50475082
_cell_formula_units_Z   2
loop_
 _symmetry_equiv_pos_site_id
 _symmetry_equiv_pos_as_xyz
  1  'x, y, z'
loop_
 _atom_site_type_symbol
 _atom_site_label
 _atom_site_symmetry_multiplicity
 _atom_site_fract_x
 _atom_site_fract_y
 _atom_site_fract_z
 _atom_site_occupancy
  B  B1  1  0.43212628  0.38972834  0.00000000  1.0
  B  B2  1  0.77281570  0.24363580  0.93280029  1.0
  B  B3  1  0.40380776  0.44689021  0.42316407  1.0
  B  B4  1  0.60796511  0.47509971  0.65987945  1.0
  Os  Os1  1  0.15845406  0.00000000  0.38534483  1.0
  Os  Os2  1  0.77191317  0.92356253  0.69172943  1.0
