# generated using pymatgen
data_B2SbAs
_symmetry_space_group_name_H-M   'P 1'
_cell_length_a   4.39939140
_cell_length_b   4.39983963
_cell_length_c   4.37443574
_cell_angle_alpha   120.21207813
_cell_angle_beta   120.20852921
_cell_angle_gamma   89.96585517
_symmetry_Int_Tables_number   1
_chemical_formula_structural   B2SbAs
_chemical_formula_sum   'B2 Sb1 As1'
_cell_volume   59.50924217
_cell_formula_units_Z   1
loop_
 _symmetry_equiv_pos_site_id
 _symmetry_equiv_pos_as_xyz
  1  'x, y, z'
loop_
 _atom_site_type_symbol
 _atom_site_label
 _atom_site_symmetry_multiplicity
 _atom_site_fract_x
 _atom_site_fract_y
 _atom_site_fract_z
 _atom_site_occupancy
  B  B0  1  0.74999528  0.24999504  0.49999081  1.0
  B  B1  1  0.25000424  0.75000479  0.50000933  1.0
  Sb  Sb2  1  0.00000034  0.00000012  0.99999987  1.0
  As  As3  1  0.50000015  0.50000005  0.99999999  1.0
