# generated using pymatgen
data_B2W
_symmetry_space_group_name_H-M   'P 1'
_cell_length_a   2.83091998
_cell_length_b   0.87853950
_cell_length_c   10.05589390
_cell_angle_alpha   113.07128906
_cell_angle_beta   98.11138153
_cell_angle_gamma   116.85447693
_symmetry_Int_Tables_number   1
_chemical_formula_structural   B2W
_chemical_formula_sum   'B8 W4'
_cell_volume   18.92354400
_cell_formula_units_Z   4
loop_
 _symmetry_equiv_pos_site_id
 _symmetry_equiv_pos_as_xyz
  1  'x, y, z'
loop_
 _atom_site_type_symbol
 _atom_site_label
 _atom_site_symmetry_multiplicity
 _atom_site_fract_x
 _atom_site_fract_y
 _atom_site_fract_z
 _atom_site_occupancy
  B  B1  1  0.36593851  0.44007409  0.67129183  1.0
  B  B2  1  0.74927980  0.29644227  0.48380685  1.0
  B  B3  1  0.00000000  0.12761593  0.22465193  1.0
  B  B4  1  0.00000000  0.67887217  0.97624242  1.0
  B  B5  1  0.65656459  0.18005621  0.22089753  1.0
  B  B6  1  0.56589544  0.55286288  0.00000000  1.0
  B  B7  1  0.48654982  0.62603420  0.90965390  1.0
  B  B8  1  0.00000000  0.00000000  0.84970784  1.0
  W  W1  1  0.38408890  0.59528536  0.38828772  1.0
  W  W2  1  0.45674059  0.24959631  0.65778297  1.0
  W  W3  1  0.22349948  0.55272889  0.16157800  1.0
  W  W4  1  0.72739029  0.26623756  0.91513568  1.0
