# generated using pymatgen
data_Ba3OsN4
_symmetry_space_group_name_H-M   'P 1'
_cell_length_a   7.06982483
_cell_length_b   7.06982446
_cell_length_c   7.06982544
_cell_angle_alpha   89.99999141
_cell_angle_beta   89.99997147
_cell_angle_gamma   90.00000065
_symmetry_Int_Tables_number   1
_chemical_formula_structural   Ba3OsN4
_chemical_formula_sum   'Ba6 Os2 N8'
_cell_volume   353.36698808
_cell_formula_units_Z   2
loop_
 _symmetry_equiv_pos_site_id
 _symmetry_equiv_pos_as_xyz
  1  'x, y, z'
loop_
 _atom_site_type_symbol
 _atom_site_label
 _atom_site_symmetry_multiplicity
 _atom_site_fract_x
 _atom_site_fract_y
 _atom_site_fract_z
 _atom_site_occupancy
  Ba  Ba0  1  0.24999944  0.00000032  0.49999998  1.0
  Ba  Ba1  1  0.75000059  0.00000044  0.50000039  1.0
  Ba  Ba2  1  0.50000021  0.24999939  0.00000005  1.0
  Ba  Ba3  1  0.50000009  0.75000060  0.99999953  1.0
  Ba  Ba4  1  0.00000010  0.49999940  0.24999939  1.0
  Ba  Ba5  1  0.99999960  0.49999995  0.75000066  1.0
  Os  Os6  1  0.00000002  0.00000000  0.99999995  1.0
  Os  Os7  1  0.50000001  0.49999999  0.50000010  1.0
  N  N8  1  0.25000054  0.25000091  0.25000085  1.0
  N  N9  1  0.74999921  0.74999909  0.74999931  1.0
  N  N10  1  0.74999920  0.74999911  0.25000065  1.0
  N  N11  1  0.74999934  0.25000077  0.74999911  1.0
  N  N12  1  0.25000072  0.25000072  0.74999911  1.0
  N  N13  1  0.25000070  0.74999920  0.25000085  1.0
  N  N14  1  0.25000099  0.74999923  0.74999937  1.0
  N  N15  1  0.74999925  0.25000089  0.25000070  1.0
