# generated using pymatgen
data_Ba3PN
_symmetry_space_group_name_H-M   'P 1'
_cell_length_a   7.19327067
_cell_length_b   7.19327076
_cell_length_c   10.71545348
_cell_angle_alpha   90.00000080
_cell_angle_beta   90.00000059
_cell_angle_gamma   147.34405233
_symmetry_Int_Tables_number   1
_chemical_formula_structural   Ba3PN
_chemical_formula_sum   'Ba6 P2 N2'
_cell_volume   299.17810005
_cell_formula_units_Z   2
loop_
 _symmetry_equiv_pos_site_id
 _symmetry_equiv_pos_as_xyz
  1  'x, y, z'
loop_
 _atom_site_type_symbol
 _atom_site_label
 _atom_site_symmetry_multiplicity
 _atom_site_fract_x
 _atom_site_fract_y
 _atom_site_fract_z
 _atom_site_occupancy
  Ba  Ba0  1  0.88335235  0.11664703  0.75000002  1.0
  Ba  Ba1  1  0.65433183  0.34566840  0.58626432  1.0
  Ba  Ba2  1  0.65433170  0.34566835  0.91373570  1.0
  Ba  Ba3  1  0.34566821  0.65433157  0.41373565  1.0
  Ba  Ba4  1  0.34566823  0.65433165  0.08626430  1.0
  Ba  Ba5  1  0.11664766  0.88335298  0.24999999  1.0
  P  P6  1  0.99999997  0.99999999  0.00000003  1.0
  P  P7  1  0.00000003  0.00000002  0.49999999  1.0
  N  N8  1  0.75486309  0.24513756  0.24999998  1.0
  N  N9  1  0.24513693  0.75486244  0.75000001  1.0
