# generated using pymatgen
data_BaBiAu2
_symmetry_space_group_name_H-M   'P 1'
_cell_length_a   4.81590652
_cell_length_b   3.13104987
_cell_length_c   3.10029101
_cell_angle_alpha   69.95845032
_cell_angle_beta   84.54034424
_cell_angle_gamma   53.32281494
_symmetry_Int_Tables_number   1
_chemical_formula_structural   BaBiAu2
_chemical_formula_sum   'Ba1 Bi1 Au2'
_cell_volume   34.84842534
_cell_formula_units_Z   1
loop_
 _symmetry_equiv_pos_site_id
 _symmetry_equiv_pos_as_xyz
  1  'x, y, z'
loop_
 _atom_site_type_symbol
 _atom_site_label
 _atom_site_symmetry_multiplicity
 _atom_site_fract_x
 _atom_site_fract_y
 _atom_site_fract_z
 _atom_site_occupancy
  Ba  Ba1  1  0.00000000  0.00000000  0.00000000  1.0
  Bi  Bi1  1  0.42518520  0.51099563  0.52273035  1.0
  Au  Au1  1  0.78489149  0.77586740  0.88222945  1.0
  Au  Au2  1  0.33307841  0.17520550  0.34552890  1.0
