# generated using pymatgen
data_BaLiPr
_symmetry_space_group_name_H-M   'P 1'
_cell_length_a   3.80305362
_cell_length_b   6.34969568
_cell_length_c   6.60527849
_cell_angle_alpha   57.22251511
_cell_angle_beta   58.77182388
_cell_angle_gamma   64.03881836
_symmetry_Int_Tables_number   1
_chemical_formula_structural   BaLiPr
_chemical_formula_sum   'Ba1 Li1 Pr1'
_cell_volume   111.90729103
_cell_formula_units_Z   1
loop_
 _symmetry_equiv_pos_site_id
 _symmetry_equiv_pos_as_xyz
  1  'x, y, z'
loop_
 _atom_site_type_symbol
 _atom_site_label
 _atom_site_symmetry_multiplicity
 _atom_site_fract_x
 _atom_site_fract_y
 _atom_site_fract_z
 _atom_site_occupancy
  Ba  Ba1  1  0.79647565  0.70774645  0.79049766  1.0
  Li  Li1  1  0.00000000  0.00000000  0.00000000  1.0
  Pr  Pr1  1  0.26184049  0.24809024  0.21462563  1.0
