# generated using pymatgen
data_BaLiIr
_symmetry_space_group_name_H-M   'P 1'
_cell_length_a   5.20494127
_cell_length_b   5.94890165
_cell_length_c   4.16635132
_cell_angle_alpha   49.01999664
_cell_angle_beta   55.62479401
_cell_angle_gamma   59.65104675
_symmetry_Int_Tables_number   1
_chemical_formula_structural   BaLiIr
_chemical_formula_sum   'Ba1 Li1 Ir1'
_cell_volume   78.47343717
_cell_formula_units_Z   1
loop_
 _symmetry_equiv_pos_site_id
 _symmetry_equiv_pos_as_xyz
  1  'x, y, z'
loop_
 _atom_site_type_symbol
 _atom_site_label
 _atom_site_symmetry_multiplicity
 _atom_site_fract_x
 _atom_site_fract_y
 _atom_site_fract_z
 _atom_site_occupancy
  Ba  Ba1  1  0.61915612  0.76561916  0.88210499  1.0
  Li  Li1  1  0.00000000  0.00000000  0.00000000  1.0
  Ir  Ir1  1  0.24304417  0.21873054  0.18676671  1.0
