# generated using pymatgen
data_BaSrS2
_symmetry_space_group_name_H-M   'P 1'
_cell_length_a   4.41708428
_cell_length_b   10.86434016
_cell_length_c   10.88490714
_cell_angle_alpha   70.90798449
_cell_angle_beta   89.43058961
_cell_angle_gamma   89.38163791
_symmetry_Int_Tables_number   1
_chemical_formula_structural   BaSrS2
_chemical_formula_sum   'Ba4 Sr4 S8'
_cell_volume   493.58024815
_cell_formula_units_Z   4
loop_
 _symmetry_equiv_pos_site_id
 _symmetry_equiv_pos_as_xyz
  1  'x, y, z'
loop_
 _atom_site_type_symbol
 _atom_site_label
 _atom_site_symmetry_multiplicity
 _atom_site_fract_x
 _atom_site_fract_y
 _atom_site_fract_z
 _atom_site_occupancy
  Ba  Ba0  1  0.76367871  0.05246706  0.79215555  1.0
  Ba  Ba1  1  0.26025818  0.92751651  0.17963188  1.0
  Ba  Ba2  1  0.26250167  0.67454617  0.92022563  1.0
  Ba  Ba3  1  0.76146435  0.30545323  0.05162109  1.0
  Sr  Sr4  1  0.26103916  0.18056382  0.42605786  1.0
  Sr  Sr5  1  0.26371725  0.42799555  0.66749742  1.0
  Sr  Sr6  1  0.76059040  0.55197697  0.30432613  1.0
  Sr  Sr7  1  0.76268816  0.79938401  0.54561874  1.0
  S  S8  1  0.26296630  0.67239668  0.42830348  1.0
  S  S9  1  0.26034371  0.43016400  0.18683046  1.0
  S  S10  1  0.76369554  0.54969146  0.78495330  1.0
  S  S11  1  0.76109698  0.30742270  0.54344236  1.0
  S  S12  1  0.75990914  0.05559652  0.31169046  1.0
  S  S13  1  0.26279603  0.18338351  0.91776919  1.0
  S  S14  1  0.26425605  0.92431166  0.66015183  1.0
  S  S15  1  0.76138638  0.79646414  0.05410863  1.0
