# generated using pymatgen
data_Be2IrPt
_symmetry_space_group_name_H-M   'P 1'
_cell_length_a   2.59315181
_cell_length_b   3.33970928
_cell_length_c   3.63250709
_cell_angle_alpha   74.57630157
_cell_angle_beta   60.79637909
_cell_angle_gamma   73.44428253
_symmetry_Int_Tables_number   1
_chemical_formula_structural   Be2IrPt
_chemical_formula_sum   'Be2 Ir1 Pt1'
_cell_volume   26.01713892
_cell_formula_units_Z   1
loop_
 _symmetry_equiv_pos_site_id
 _symmetry_equiv_pos_as_xyz
  1  'x, y, z'
loop_
 _atom_site_type_symbol
 _atom_site_label
 _atom_site_symmetry_multiplicity
 _atom_site_fract_x
 _atom_site_fract_y
 _atom_site_fract_z
 _atom_site_occupancy
  Be  Be1  1  0.33109736  0.60735238  0.29650557  1.0
  Be  Be2  1  0.00000000  0.00000000  0.00000000  1.0
  Ir  Ir1  1  0.30267107  0.17625785  0.30469781  1.0
  Pt  Pt1  1  0.69803005  0.83289671  0.72404230  1.0
