# generated using pymatgen
data_Be2NiIr
_symmetry_space_group_name_H-M   'P 1'
_cell_length_a   2.74956918
_cell_length_b   3.31340265
_cell_length_c   2.11982894
_cell_angle_alpha   52.98427582
_cell_angle_beta   54.29407883
_cell_angle_gamma   51.40506744
_symmetry_Int_Tables_number   1
_chemical_formula_structural   Be2NiIr
_chemical_formula_sum   'Be2 Ni1 Ir1'
_cell_volume   11.36267600
_cell_formula_units_Z   1
loop_
 _symmetry_equiv_pos_site_id
 _symmetry_equiv_pos_as_xyz
  1  'x, y, z'
loop_
 _atom_site_type_symbol
 _atom_site_label
 _atom_site_symmetry_multiplicity
 _atom_site_fract_x
 _atom_site_fract_y
 _atom_site_fract_z
 _atom_site_occupancy
  Be  Be1  1  0.56362557  0.40161034  0.36907238  1.0
  Be  Be2  1  0.87248266  0.91497922  0.92250216  1.0
  Ni  Ni1  1  0.76159877  0.76801032  0.65832931  1.0
  Ir  Ir1  1  0.10315102  0.19280255  0.00000000  1.0
