# generated using pymatgen
data_Be2RuW
_symmetry_space_group_name_H-M   'P 1'
_cell_length_a   1.99236894
_cell_length_b   1.99728191
_cell_length_c   3.49304914
_cell_angle_alpha   51.88682175
_cell_angle_beta   70.34489441
_cell_angle_gamma   64.78999329
_symmetry_Int_Tables_number   1
_chemical_formula_structural   Be2RuW
_chemical_formula_sum   'Be2 Ru1 W1'
_cell_volume   9.84190695
_cell_formula_units_Z   1
loop_
 _symmetry_equiv_pos_site_id
 _symmetry_equiv_pos_as_xyz
  1  'x, y, z'
loop_
 _atom_site_type_symbol
 _atom_site_label
 _atom_site_symmetry_multiplicity
 _atom_site_fract_x
 _atom_site_fract_y
 _atom_site_fract_z
 _atom_site_occupancy
  Be  Be1  1  0.36492610  0.13143370  0.17867795  1.0
  Be  Be2  1  0.00000000  0.00000000  0.00000000  1.0
  Ru  Ru1  1  0.49069414  0.48137906  0.36008930  1.0
  W  W1  1  0.80133843  0.73079830  0.60041016  1.0
