# generated using pymatgen
data_Be3AsN
_symmetry_space_group_name_H-M   'P 1'
_cell_length_a   5.15546120
_cell_length_b   5.15546122
_cell_length_c   8.79843120
_cell_angle_alpha   89.99999414
_cell_angle_beta   89.99999348
_cell_angle_gamma   120.00061147
_symmetry_Int_Tables_number   1
_chemical_formula_structural   Be3AsN
_chemical_formula_sum   'Be12 As4 N4'
_cell_volume   202.52015225
_cell_formula_units_Z   4
loop_
 _symmetry_equiv_pos_site_id
 _symmetry_equiv_pos_as_xyz
  1  'x, y, z'
loop_
 _atom_site_type_symbol
 _atom_site_label
 _atom_site_symmetry_multiplicity
 _atom_site_fract_x
 _atom_site_fract_y
 _atom_site_fract_z
 _atom_site_occupancy
  Be  Be0  1  0.61753539  0.80876985  0.74999985  1.0
  Be  Be1  1  0.80876985  0.61753537  0.24999985  1.0
  Be  Be2  1  0.80876717  0.19123281  0.25000000  1.0
  Be  Be3  1  0.19123282  0.80876720  0.75000000  1.0
  Be  Be4  1  0.19123016  0.38246463  0.75000015  1.0
  Be  Be5  1  0.38246460  0.19123014  0.25000015  1.0
  Be  Be6  1  0.50000001  0.00000001  0.50000000  1.0
  Be  Be7  1  0.50000000  0.50000000  0.00000000  1.0
  Be  Be8  1  0.50000000  0.00000000  0.00000000  1.0
  Be  Be9  1  0.50000000  0.50000000  0.50000000  1.0
  Be  Be10  1  0.00000000  0.50000000  0.50000000  1.0
  Be  Be11  1  0.00000000  0.50000000  0.00000000  1.0
  As  As12  1  0.66666667  0.33333333  0.75000000  1.0
  As  As13  1  0.33333333  0.66666667  0.25000000  1.0
  As  As14  1  0.00000000  0.00000000  0.50000000  1.0
  As  As15  1  0.00000000  0.00000000  0.00000000  1.0
  N  N16  1  0.33333333  0.66666667  0.89377394  1.0
  N  N17  1  0.66666667  0.33333333  0.39377394  1.0
  N  N18  1  0.66666667  0.33333333  0.10622606  1.0
  N  N19  1  0.33333333  0.66666667  0.60622606  1.0
