# generated using pymatgen
data_Be3SiS
_symmetry_space_group_name_H-M   'P 1'
_cell_length_a   6.04227672
_cell_length_b   5.72055808
_cell_length_c   10.39451697
_cell_angle_alpha   56.50201849
_cell_angle_beta   89.99961792
_cell_angle_gamma   89.99910751
_symmetry_Int_Tables_number   1
_chemical_formula_structural   Be3SiS
_chemical_formula_sum   'Be12 Si4 S4'
_cell_volume   299.61257633
_cell_formula_units_Z   4
loop_
 _symmetry_equiv_pos_site_id
 _symmetry_equiv_pos_as_xyz
  1  'x, y, z'
loop_
 _atom_site_type_symbol
 _atom_site_label
 _atom_site_symmetry_multiplicity
 _atom_site_fract_x
 _atom_site_fract_y
 _atom_site_fract_z
 _atom_site_occupancy
  Be  Be0  1  0.97095058  0.89467620  0.74958517  1.0
  Be  Be1  1  0.52905352  0.89466648  0.24958889  1.0
  Be  Be2  1  0.02904673  0.10532255  0.25041466  1.0
  Be  Be3  1  0.47094374  0.10533481  0.75041125  1.0
  Be  Be4  1  0.81397620  0.60085111  0.57720090  1.0
  Be  Be5  1  0.68601931  0.60084252  0.07720003  1.0
  Be  Be6  1  0.18602465  0.39914749  0.42279914  1.0
  Be  Be7  1  0.31398157  0.39915882  0.92279998  1.0
  Be  Be8  1  0.69081486  0.26944698  0.41501167  1.0
  Be  Be9  1  0.80917421  0.26945882  0.91500683  1.0
  Be  Be10  1  0.30918695  0.73055586  0.58498751  1.0
  Be  Be11  1  0.19082771  0.73053831  0.08499401  1.0
  Si  Si12  1  0.49999998  0.50000037  0.49999997  1.0
  Si  Si13  1  0.99999999  0.49999967  0.00000002  1.0
  Si  Si14  1  0.49999998  0.00000041  0.00000010  1.0
  Si  Si15  1  0.99999993  0.99999960  0.49999988  1.0
  S  S16  1  0.48872702  0.74131581  0.75181798  1.0
  S  S17  1  0.01127022  0.74130318  0.25181940  1.0
  S  S18  1  0.51127298  0.25868625  0.24818192  1.0
  S  S19  1  0.98872986  0.25869478  0.74818070  1.0
