# generated using pymatgen
data_Be9Si4Se
_symmetry_space_group_name_H-M   'P 1'
_cell_length_a   6.60185621
_cell_length_b   6.60176792
_cell_length_c   12.18595555
_cell_angle_alpha   89.99992982
_cell_angle_beta   90.00000870
_cell_angle_gamma   119.86849543
_symmetry_Int_Tables_number   1
_chemical_formula_structural   Be9Si4Se
_chemical_formula_sum   'Be18 Si8 Se2'
_cell_volume   460.56455002
_cell_formula_units_Z   2
loop_
 _symmetry_equiv_pos_site_id
 _symmetry_equiv_pos_as_xyz
  1  'x, y, z'
loop_
 _atom_site_type_symbol
 _atom_site_label
 _atom_site_symmetry_multiplicity
 _atom_site_fract_x
 _atom_site_fract_y
 _atom_site_fract_z
 _atom_site_occupancy
  Be  Be0  1  0.60079603  0.99977068  0.58421039  1.0
  Be  Be1  1  0.00022476  0.39922680  0.41578656  1.0
  Be  Be2  1  0.99928813  0.59882444  0.58471514  1.0
  Be  Be3  1  0.40193879  0.40059577  0.58500697  1.0
  Be  Be4  1  0.99929337  0.59879386  0.91531649  1.0
  Be  Be5  1  0.40194706  0.40057836  0.91498673  1.0
  Be  Be6  1  0.60080084  0.99975700  0.91577841  1.0
  Be  Be7  1  0.40119677  0.00070092  0.08468288  1.0
  Be  Be8  1  0.59941717  0.59805398  0.08501012  1.0
  Be  Be9  1  0.59939411  0.59805755  0.41499275  1.0
  Be  Be10  1  0.89302811  0.69391071  0.25000350  1.0
  Be  Be11  1  0.79983443  0.10822415  0.24998657  1.0
  Be  Be12  1  0.30615617  0.20025720  0.25000751  1.0
  Be  Be13  1  0.30610574  0.10698024  0.74999595  1.0
  Be  Be14  1  0.79972999  0.69381865  0.74999038  1.0
  Be  Be15  1  0.89177464  0.20017841  0.75001295  1.0
  Be  Be16  1  0.00023595  0.39921896  0.08422696  1.0
  Be  Be17  1  0.40118667  0.00071340  0.41528574  1.0
  Si  Si18  1  0.13928494  0.71572500  0.75002121  1.0
  Si  Si19  1  0.28332013  0.42422228  0.74999861  1.0
  Si  Si20  1  0.57464533  0.86082177  0.74999155  1.0
  Si  Si21  1  0.57577845  0.71667585  0.24999918  1.0
  Si  Si22  1  0.28427780  0.86071440  0.24998078  1.0
  Si  Si23  1  0.13917915  0.42535975  0.25000975  1.0
  Si  Si24  1  0.33345879  0.66653732  0.50000292  1.0
  Si  Si25  1  0.33347975  0.66651296  0.99999805  1.0
  Se  Se26  1  0.66711221  0.33288969  0.50000196  1.0
  Se  Se27  1  0.66711470  0.33287989  0.99999997  1.0
