# generated using pymatgen
data_BeAlIr2
_symmetry_space_group_name_H-M   'P 1'
_cell_length_a   3.78124571
_cell_length_b   2.72501731
_cell_length_c   3.44354391
_cell_angle_alpha   48.06149292
_cell_angle_beta   69.43637848
_cell_angle_gamma   54.58786011
_symmetry_Int_Tables_number   1
_chemical_formula_structural   BeAlIr2
_chemical_formula_sum   'Be1 Al1 Ir2'
_cell_volume   21.47310501
_cell_formula_units_Z   1
loop_
 _symmetry_equiv_pos_site_id
 _symmetry_equiv_pos_as_xyz
  1  'x, y, z'
loop_
 _atom_site_type_symbol
 _atom_site_label
 _atom_site_symmetry_multiplicity
 _atom_site_fract_x
 _atom_site_fract_y
 _atom_site_fract_z
 _atom_site_occupancy
  Be  Be1  1  0.61637527  0.64271259  0.83551681  1.0
  Al  Al1  1  0.11328962  0.39302579  0.20707431  1.0
  Ir  Ir1  1  0.00000000  0.00000000  0.00000000  1.0
  Ir  Ir2  1  0.56783289  0.71275526  0.53782302  1.0
