# generated using pymatgen
data_BeCrRu2
_symmetry_space_group_name_H-M   'P 1'
_cell_length_a   4.40384293
_cell_length_b   4.52849960
_cell_length_c   3.47429943
_cell_angle_alpha   62.62223816
_cell_angle_beta   61.50099182
_cell_angle_gamma   69.67916107
_symmetry_Int_Tables_number   1
_chemical_formula_structural   BeCrRu2
_chemical_formula_sum   'Be1 Cr1 Ru2'
_cell_volume   53.34052384
_cell_formula_units_Z   1
loop_
 _symmetry_equiv_pos_site_id
 _symmetry_equiv_pos_as_xyz
  1  'x, y, z'
loop_
 _atom_site_type_symbol
 _atom_site_label
 _atom_site_symmetry_multiplicity
 _atom_site_fract_x
 _atom_site_fract_y
 _atom_site_fract_z
 _atom_site_occupancy
  Be  Be1  1  0.25213897  0.18062478  0.27284074  1.0
  Cr  Cr1  1  0.73354715  0.77622056  0.81925529  1.0
  Ru  Ru1  1  0.00000000  0.00000000  0.00000000  1.0
  Ru  Ru2  1  0.38461626  0.53648257  0.42042261  1.0
