# generated using pymatgen
data_BeSiRu2
_symmetry_space_group_name_H-M   'P 1'
_cell_length_a   1.57057238
_cell_length_b   1.73204029
_cell_length_c   1.85506546
_cell_angle_alpha   63.35098267
_cell_angle_beta   64.50346375
_cell_angle_gamma   70.61281586
_symmetry_Int_Tables_number   1
_chemical_formula_structural   BeSiRu2
_chemical_formula_sum   'Be1 Si1 Ru2'
_cell_volume   4.01023088
_cell_formula_units_Z   1
loop_
 _symmetry_equiv_pos_site_id
 _symmetry_equiv_pos_as_xyz
  1  'x, y, z'
loop_
 _atom_site_type_symbol
 _atom_site_label
 _atom_site_symmetry_multiplicity
 _atom_site_fract_x
 _atom_site_fract_y
 _atom_site_fract_z
 _atom_site_occupancy
  Be  Be1  1  0.28293392  0.18733999  0.24679786  1.0
  Si  Si1  1  0.78170371  0.85840166  0.65809536  1.0
  Ru  Ru1  1  0.00000000  0.00000000  0.00000000  1.0
  Ru  Ru2  1  0.55127770  0.40172198  0.63809305  1.0
