# generated using pymatgen
data_Bi2SeN4
_symmetry_space_group_name_H-M   'P 1'
_cell_length_a   7.92419855
_cell_length_b   7.92422358
_cell_length_c   5.11065542
_cell_angle_alpha   90.00000658
_cell_angle_beta   89.99998979
_cell_angle_gamma   90.00286247
_symmetry_Int_Tables_number   1
_chemical_formula_structural   Bi2SeN4
_chemical_formula_sum   'Bi4 Se2 N8'
_cell_volume   320.91400379
_cell_formula_units_Z   2
loop_
 _symmetry_equiv_pos_site_id
 _symmetry_equiv_pos_as_xyz
  1  'x, y, z'
loop_
 _atom_site_type_symbol
 _atom_site_label
 _atom_site_symmetry_multiplicity
 _atom_site_fract_x
 _atom_site_fract_y
 _atom_site_fract_z
 _atom_site_occupancy
  Bi  Bi0  1  0.86935007  0.13064178  0.50000005  1.0
  Bi  Bi1  1  0.13064680  0.86935482  0.49999989  1.0
  Bi  Bi2  1  0.36933910  0.36936152  0.00000003  1.0
  Bi  Bi3  1  0.63065910  0.63064035  0.99999998  1.0
  Se  Se4  1  0.49999980  0.49999974  0.50000001  1.0
  Se  Se5  1  0.00000128  0.99999963  0.00000009  1.0
  N  N6  1  0.55897545  0.95806655  0.49999999  1.0
  N  N7  1  0.44101645  0.04192963  0.50000005  1.0
  N  N8  1  0.05898915  0.54192310  0.99999999  1.0
  N  N9  1  0.94100501  0.45807255  0.99999996  1.0
  N  N10  1  0.95809333  0.55899672  0.50000001  1.0
  N  N11  1  0.04190494  0.44100175  0.49999994  1.0
  N  N12  1  0.54192143  0.05900830  0.99999999  1.0
  N  N13  1  0.45809809  0.94100356  0.00000004  1.0
