# generated using pymatgen
data_Bi2Te4Ir
_symmetry_space_group_name_H-M   'P 1'
_cell_length_a   9.81063772
_cell_length_b   9.81063716
_cell_length_c   7.00294688
_cell_angle_alpha   90.00022449
_cell_angle_beta   89.99977743
_cell_angle_gamma   136.62244331
_symmetry_Int_Tables_number   1
_chemical_formula_structural   Bi2Te4Ir
_chemical_formula_sum   'Bi4 Te8 Ir2'
_cell_volume   462.92152429
_cell_formula_units_Z   2
loop_
 _symmetry_equiv_pos_site_id
 _symmetry_equiv_pos_as_xyz
  1  'x, y, z'
loop_
 _atom_site_type_symbol
 _atom_site_label
 _atom_site_symmetry_multiplicity
 _atom_site_fract_x
 _atom_site_fract_y
 _atom_site_fract_z
 _atom_site_occupancy
  Bi  Bi0  1  0.33940179  0.66059762  0.03438825  1.0
  Bi  Bi1  1  0.16059721  0.83940211  0.53438761  1.0
  Bi  Bi2  1  0.83940215  0.16059725  0.46561239  1.0
  Bi  Bi3  1  0.66059785  0.33940202  0.96561175  1.0
  Te  Te4  1  0.80006157  0.69994587  0.75000178  1.0
  Te  Te5  1  0.69994580  0.80006156  0.24999817  1.0
  Te  Te6  1  0.35477818  0.64522242  0.60232539  1.0
  Te  Te7  1  0.14522183  0.85477846  0.10232611  1.0
  Te  Te8  1  0.85477862  0.14522199  0.89767389  1.0
  Te  Te9  1  0.64522231  0.35477806  0.39767461  1.0
  Te  Te10  1  0.19993837  0.30005412  0.24999841  1.0
  Te  Te11  1  0.30005418  0.19993838  0.75000164  1.0
  Ir  Ir12  1  0.50000005  0.50000005  0.50000000  1.0
  Ir  Ir13  1  0.00000008  0.00000008  0.00000000  1.0
