# generated using pymatgen
data_BIrN3
_symmetry_space_group_name_H-M   'P 1'
_cell_length_a   5.35705436
_cell_length_b   5.35705447
_cell_length_c   10.62182088
_cell_angle_alpha   90.00000101
_cell_angle_beta   89.99999979
_cell_angle_gamma   119.99999716
_symmetry_Int_Tables_number   1
_chemical_formula_structural   BIrN3
_chemical_formula_sum   'B6 Ir6 N18'
_cell_volume   263.98650919
_cell_formula_units_Z   6
loop_
 _symmetry_equiv_pos_site_id
 _symmetry_equiv_pos_as_xyz
  1  'x, y, z'
loop_
 _atom_site_type_symbol
 _atom_site_label
 _atom_site_symmetry_multiplicity
 _atom_site_fract_x
 _atom_site_fract_y
 _atom_site_fract_z
 _atom_site_occupancy
  B  B0  1  0.66637967  0.00000016  0.49939847  1.0
  B  B1  1  0.66637902  0.66637919  0.99939773  1.0
  B  B2  1  0.00000013  0.33362079  0.99939773  1.0
  B  B3  1  0.99999993  0.66637953  0.49939847  1.0
  B  B4  1  0.33362049  0.33362037  0.49939847  1.0
  B  B5  1  0.33362074  0.99999994  0.99939773  1.0
  Ir  Ir6  1  0.66666667  0.33333333  0.22431491  1.0
  Ir  Ir7  1  0.33333333  0.66666667  0.72431775  1.0
  Ir  Ir8  1  0.66666667  0.33333333  0.72431776  1.0
  Ir  Ir9  1  0.33333333  0.66666667  0.22431493  1.0
  Ir  Ir10  1  0.99999999  0.00000001  0.78459238  1.0
  Ir  Ir11  1  0.00000001  0.00000001  0.28459330  1.0
  N  N12  1  0.66666667  0.33333333  0.02515349  1.0
  N  N13  1  0.33333333  0.66666667  0.52515246  1.0
  N  N14  1  0.66666667  0.33333333  0.52515241  1.0
  N  N15  1  0.33333333  0.66666667  0.02515352  1.0
  N  N16  1  0.00000002  0.00000007  0.97709815  1.0
  N  N17  1  0.00000001  0.00000003  0.47709766  1.0
  N  N18  1  0.36216253  0.99999999  0.84518236  1.0
  N  N19  1  0.36216189  0.36216192  0.34518221  1.0
  N  N20  1  0.00000004  0.63783813  0.34518221  1.0
  N  N21  1  0.00000000  0.36216255  0.84518236  1.0
  N  N22  1  0.63783746  0.63783747  0.84518236  1.0
  N  N23  1  0.63783809  0.99999997  0.34518221  1.0
  N  N24  1  0.29580512  0.99999995  0.16021062  1.0
  N  N25  1  0.29580597  0.29580593  0.66020902  1.0
  N  N26  1  0.99999994  0.70419402  0.66020901  1.0
  N  N27  1  0.00000005  0.29580516  0.16021063  1.0
  N  N28  1  0.70419488  0.70419490  0.16021065  1.0
  N  N29  1  0.70419405  0.00000003  0.66020901  1.0
