# generated using pymatgen
data_BIrPd
_symmetry_space_group_name_H-M   'P 1'
_cell_length_a   2.89997101
_cell_length_b   2.96358752
_cell_length_c   3.59886146
_cell_angle_alpha   116.75741577
_cell_angle_beta   120.28946686
_cell_angle_gamma   116.02764893
_symmetry_Int_Tables_number   1
_chemical_formula_structural   BIrPd
_chemical_formula_sum   'B4 Ir4 Pd4'
_cell_volume   12.02238629
_cell_formula_units_Z   4
loop_
 _symmetry_equiv_pos_site_id
 _symmetry_equiv_pos_as_xyz
  1  'x, y, z'
loop_
 _atom_site_type_symbol
 _atom_site_label
 _atom_site_symmetry_multiplicity
 _atom_site_fract_x
 _atom_site_fract_y
 _atom_site_fract_z
 _atom_site_occupancy
  B  B1  1  0.00000000  0.66484177  0.61548680  1.0
  B  B2  1  0.82333148  0.47380626  0.00000000  1.0
  B  B3  1  0.11712873  0.47150514  0.44284427  1.0
  B  B4  1  0.33577693  0.53263837  0.96619290  1.0
  Ir  Ir1  1  0.00000000  0.82665908  0.38938022  1.0
  Ir  Ir2  1  0.54481351  0.38284451  0.50977445  1.0
  Ir  Ir3  1  0.55855662  0.51442111  0.14085966  1.0
  Ir  Ir4  1  0.76140201  0.88129044  0.86272979  1.0
  Pd  Pd1  1  0.70969331  0.19328249  0.19267017  1.0
  Pd  Pd2  1  0.45495906  0.20611198  0.28763524  1.0
  Pd  Pd3  1  0.79794449  0.32570907  0.85923326  1.0
  Pd  Pd4  1  0.76230228  0.87976801  0.43884915  1.0
