# generated using pymatgen
data_BiSbO3
_symmetry_space_group_name_H-M   'P 1'
_cell_length_a   4.20119662
_cell_length_b   4.20135942
_cell_length_c   4.20133099
_cell_angle_alpha   78.83302754
_cell_angle_beta   78.83532268
_cell_angle_gamma   78.83581064
_symmetry_Int_Tables_number   1
_chemical_formula_structural   BiSbO3
_chemical_formula_sum   'Bi1 Sb1 O3'
_cell_volume   70.43050597
_cell_formula_units_Z   1
loop_
 _symmetry_equiv_pos_site_id
 _symmetry_equiv_pos_as_xyz
  1  'x, y, z'
loop_
 _atom_site_type_symbol
 _atom_site_label
 _atom_site_symmetry_multiplicity
 _atom_site_fract_x
 _atom_site_fract_y
 _atom_site_fract_z
 _atom_site_occupancy
  Bi  Bi0  1  0.49999997  0.50000005  0.49999997  1.0
  Sb  Sb1  1  0.99999999  0.99999999  0.00000001  1.0
  O  O2  1  0.99999998  0.99999998  0.49999996  1.0
  O  O3  1  0.50000002  0.99999992  0.00000006  1.0
  O  O4  1  0.00000004  0.50000006  0.99999999  1.0
