# generated using pymatgen
data_BMo2
_symmetry_space_group_name_H-M   'P 1'
_cell_length_a   2.95779657
_cell_length_b   3.18850541
_cell_length_c   2.87220407
_cell_angle_alpha   106.33998108
_cell_angle_beta   94.89975739
_cell_angle_gamma   119.08141327
_symmetry_Int_Tables_number   1
_chemical_formula_structural   BMo2
_chemical_formula_sum   'B2 Mo4'
_cell_volume   21.90496623
_cell_formula_units_Z   2
loop_
 _symmetry_equiv_pos_site_id
 _symmetry_equiv_pos_as_xyz
  1  'x, y, z'
loop_
 _atom_site_type_symbol
 _atom_site_label
 _atom_site_symmetry_multiplicity
 _atom_site_fract_x
 _atom_site_fract_y
 _atom_site_fract_z
 _atom_site_occupancy
  B  B1  1  0.82659793  0.70498079  0.00000000  1.0
  B  B2  1  0.26098937  0.40958002  0.00000000  1.0
  Mo  Mo1  1  0.59261459  0.35532534  0.63518077  1.0
  Mo  Mo2  1  0.29554051  0.64262092  0.23115319  1.0
  Mo  Mo3  1  0.25075731  0.12428546  0.37665612  1.0
  Mo  Mo4  1  0.83924937  0.22028199  0.47155464  1.0
