# generated using pymatgen
data_BMo
_symmetry_space_group_name_H-M   'P 1'
_cell_length_a   2.07278991
_cell_length_b   2.17010045
_cell_length_c   6.03545904
_cell_angle_alpha   85.49794769
_cell_angle_beta   122.73225403
_cell_angle_gamma   95.06110382
_symmetry_Int_Tables_number   1
_chemical_formula_structural   BMo
_chemical_formula_sum   'B4 Mo4'
_cell_volume   22.73306771
_cell_formula_units_Z   4
loop_
 _symmetry_equiv_pos_site_id
 _symmetry_equiv_pos_as_xyz
  1  'x, y, z'
loop_
 _atom_site_type_symbol
 _atom_site_label
 _atom_site_symmetry_multiplicity
 _atom_site_fract_x
 _atom_site_fract_y
 _atom_site_fract_z
 _atom_site_occupancy
  B  B1  1  0.30689499  0.85987842  0.56085962  1.0
  B  B2  1  0.00000000  0.86125922  0.95332515  1.0
  B  B3  1  0.25514761  0.17229226  0.62052757  1.0
  B  B4  1  0.69587719  0.00000000  0.00000000  1.0
  Mo  Mo1  1  0.19365293  0.69651848  0.14842358  1.0
  Mo  Mo2  1  0.21040514  0.80870306  0.62003624  1.0
  Mo  Mo3  1  0.62592691  0.24953720  0.91341662  1.0
  Mo  Mo4  1  0.79225945  0.00000000  0.26319587  1.0
