# generated using pymatgen
data_BRh
_symmetry_space_group_name_H-M   'P 1'
_cell_length_a   5.60840654
_cell_length_b   3.66467571
_cell_length_c   4.56073713
_cell_angle_alpha   93.96342468
_cell_angle_beta   98.20848846
_cell_angle_gamma   126.46395111
_symmetry_Int_Tables_number   1
_chemical_formula_structural   BRh
_chemical_formula_sum   'B2 Rh2'
_cell_volume   73.20446496
_cell_formula_units_Z   2
loop_
 _symmetry_equiv_pos_site_id
 _symmetry_equiv_pos_as_xyz
  1  'x, y, z'
loop_
 _atom_site_type_symbol
 _atom_site_label
 _atom_site_symmetry_multiplicity
 _atom_site_fract_x
 _atom_site_fract_y
 _atom_site_fract_z
 _atom_site_occupancy
  B  B1  1  0.60568118  0.46881145  0.00000000  1.0
  B  B2  1  0.54703248  0.58143562  0.69446838  1.0
  Rh  Rh1  1  0.18039089  0.87808490  0.65753758  1.0
  Rh  Rh2  1  0.88520342  0.12501195  0.40084437  1.0
