# generated using pymatgen
data_BRuN2
_symmetry_space_group_name_H-M   'P 1'
_cell_length_a   3.69668031
_cell_length_b   3.69668026
_cell_length_c   3.69668045
_cell_angle_alpha   59.99999808
_cell_angle_beta   59.99999430
_cell_angle_gamma   59.99999839
_symmetry_Int_Tables_number   1
_chemical_formula_structural   BRuN2
_chemical_formula_sum   'B1 Ru1 N2'
_cell_volume   35.72075793
_cell_formula_units_Z   1
loop_
 _symmetry_equiv_pos_site_id
 _symmetry_equiv_pos_as_xyz
  1  'x, y, z'
loop_
 _atom_site_type_symbol
 _atom_site_label
 _atom_site_symmetry_multiplicity
 _atom_site_fract_x
 _atom_site_fract_y
 _atom_site_fract_z
 _atom_site_occupancy
  B  B0  1  0.75000001  0.75000000  0.74999999  1.0
  Ru  Ru1  1  0.50000001  0.50000000  0.50000000  1.0
  N  N2  1  0.25000000  0.24999998  0.25000000  1.0
  N  N3  1  0.99999998  0.00000001  0.00000001  1.0
