# generated using pymatgen
data_BW2
_symmetry_space_group_name_H-M   'P 1'
_cell_length_a   7.14879560
_cell_length_b   2.94287300
_cell_length_c   5.91863918
_cell_angle_alpha   115.85572052
_cell_angle_beta   112.61872864
_cell_angle_gamma   120.97233582
_symmetry_Int_Tables_number   1
_chemical_formula_structural   BW2
_chemical_formula_sum   'B2 W4'
_cell_volume   58.98805684
_cell_formula_units_Z   2
loop_
 _symmetry_equiv_pos_site_id
 _symmetry_equiv_pos_as_xyz
  1  'x, y, z'
loop_
 _atom_site_type_symbol
 _atom_site_label
 _atom_site_symmetry_multiplicity
 _atom_site_fract_x
 _atom_site_fract_y
 _atom_site_fract_z
 _atom_site_occupancy
  B  B1  1  0.75860775  0.75500059  0.00000000  1.0
  B  B2  1  0.18546864  0.26806241  0.00000000  1.0
  W  W1  1  0.76414096  0.75189453  0.53393894  1.0
  W  W2  1  0.12169102  0.84887910  0.15987045  1.0
  W  W3  1  0.10694137  0.36237025  0.52344304  1.0
  W  W4  1  0.74648464  0.40050328  0.60317481  1.0
