# generated using pymatgen
data_Ca2CdO3
_symmetry_space_group_name_H-M   'P 1'
_cell_length_a   7.03603759
_cell_length_b   7.03609940
_cell_length_c   7.03605630
_cell_angle_alpha   89.99955139
_cell_angle_beta   90.00038753
_cell_angle_gamma   90.00031889
_symmetry_Int_Tables_number   1
_chemical_formula_structural   Ca2CdO3
_chemical_formula_sum   'Ca8 Cd4 O12'
_cell_volume   348.32883159
_cell_formula_units_Z   4
loop_
 _symmetry_equiv_pos_site_id
 _symmetry_equiv_pos_as_xyz
  1  'x, y, z'
loop_
 _atom_site_type_symbol
 _atom_site_label
 _atom_site_symmetry_multiplicity
 _atom_site_fract_x
 _atom_site_fract_y
 _atom_site_fract_z
 _atom_site_occupancy
  Ca  Ca0  1  0.56328966  0.43671603  0.93670818  1.0
  Ca  Ca1  1  0.68671400  0.68671632  0.68671257  1.0
  Ca  Ca2  1  0.93670354  0.56329601  0.43671079  1.0
  Ca  Ca3  1  0.43670592  0.93670507  0.56329838  1.0
  Ca  Ca4  1  0.18671602  0.81328426  0.31328896  1.0
  Ca  Ca5  1  0.81329873  0.31330203  0.18670341  1.0
  Ca  Ca6  1  0.31330105  0.18670238  0.81329434  1.0
  Ca  Ca7  1  0.06330520  0.06330908  0.06330934  1.0
  Cd  Cd8  1  0.87500139  0.12500042  0.62500061  1.0
  Cd  Cd9  1  0.12499931  0.62500093  0.87499985  1.0
  Cd  Cd10  1  0.62500169  0.87500211  0.12500084  1.0
  Cd  Cd11  1  0.37500118  0.37499858  0.37500075  1.0
  O  O12  1  0.62499898  0.33545016  0.58545086  1.0
  O  O13  1  0.66454008  0.08544675  0.87499172  1.0
  O  O14  1  0.58545007  0.62499901  0.33545075  1.0
  O  O15  1  0.91455035  0.37499510  0.83545328  1.0
  O  O16  1  0.33544986  0.58545294  0.62499709  1.0
  O  O17  1  0.41453733  0.12499455  0.16454376  1.0
  O  O18  1  0.08545073  0.87499718  0.66454421  1.0
  O  O19  1  0.83544879  0.91454570  0.37500117  1.0
  O  O20  1  0.16455007  0.41455254  0.12500116  1.0
  O  O21  1  0.87498903  0.66453795  0.08544630  1.0
  O  O22  1  0.37500252  0.83544477  0.91454835  1.0
  O  O23  1  0.12499449  0.16455011  0.41454333  1.0
