# generated using pymatgen
data_Ca3SnO4
_symmetry_space_group_name_H-M   'P 1'
_cell_length_a   6.39725022
_cell_length_b   6.39725036
_cell_length_c   6.39725026
_cell_angle_alpha   89.99999964
_cell_angle_beta   90.00000090
_cell_angle_gamma   90.00000072
_symmetry_Int_Tables_number   1
_chemical_formula_structural   Ca3SnO4
_chemical_formula_sum   'Ca6 Sn2 O8'
_cell_volume   261.80625956
_cell_formula_units_Z   2
loop_
 _symmetry_equiv_pos_site_id
 _symmetry_equiv_pos_as_xyz
  1  'x, y, z'
loop_
 _atom_site_type_symbol
 _atom_site_label
 _atom_site_symmetry_multiplicity
 _atom_site_fract_x
 _atom_site_fract_y
 _atom_site_fract_z
 _atom_site_occupancy
  Ca  Ca0  1  0.50000000  0.00000001  0.75000001  1.0
  Ca  Ca1  1  0.50000000  0.00000000  0.24999999  1.0
  Ca  Ca2  1  0.74999999  0.50000000  0.00000000  1.0
  Ca  Ca3  1  0.00000000  0.75000001  0.49999999  1.0
  Ca  Ca4  1  0.00000000  0.24999998  0.50000000  1.0
  Ca  Ca5  1  0.25000001  0.50000000  0.00000000  1.0
  Sn  Sn6  1  0.50000000  0.50000000  0.50000001  1.0
  Sn  Sn7  1  0.00000000  0.00000000  0.99999999  1.0
  O  O8  1  0.75000000  0.75000001  0.75000000  1.0
  O  O9  1  0.75000000  0.25000000  0.75000000  1.0
  O  O10  1  0.74999999  0.75000000  0.25000000  1.0
  O  O11  1  0.74999999  0.24999999  0.25000001  1.0
  O  O12  1  0.25000000  0.75000000  0.75000000  1.0
  O  O13  1  0.25000001  0.75000000  0.25000000  1.0
  O  O14  1  0.25000001  0.25000000  0.75000000  1.0
  O  O15  1  0.25000001  0.25000000  0.25000000  1.0
