# generated using pymatgen
data_CaIr2
_symmetry_space_group_name_H-M   'P 1'
_cell_length_a   2.05449462
_cell_length_b   3.56641054
_cell_length_c   2.40557408
_cell_angle_alpha   39.30069733
_cell_angle_beta   67.21027374
_cell_angle_gamma   61.35411453
_symmetry_Int_Tables_number   1
_chemical_formula_structural   CaIr2
_chemical_formula_sum   'Ca2 Ir4'
_cell_volume   9.79341476
_cell_formula_units_Z   2
loop_
 _symmetry_equiv_pos_site_id
 _symmetry_equiv_pos_as_xyz
  1  'x, y, z'
loop_
 _atom_site_type_symbol
 _atom_site_label
 _atom_site_symmetry_multiplicity
 _atom_site_fract_x
 _atom_site_fract_y
 _atom_site_fract_z
 _atom_site_occupancy
  Ca  Ca1  1  0.37852246  0.37810880  0.32554552  1.0
  Ca  Ca2  1  0.62307477  0.59757459  0.50328636  1.0
  Ir  Ir1  1  0.00000000  0.58870357  0.00000000  1.0
  Ir  Ir2  1  0.24729180  0.00000000  0.00000000  1.0
  Ir  Ir3  1  0.00000000  0.00000000  0.00000000  1.0
  Ir  Ir4  1  0.00000000  0.00000000  0.42341238  1.0
