# generated using pymatgen
data_CaMgNi5
_symmetry_space_group_name_H-M   'P 1'
_cell_length_a   4.81679440
_cell_length_b   4.87915421
_cell_length_c   4.47214985
_cell_angle_alpha   67.16374207
_cell_angle_beta   71.83901215
_cell_angle_gamma   52.23796463
_symmetry_Int_Tables_number   1
_chemical_formula_structural   CaMgNi5
_chemical_formula_sum   'Ca1 Mg1 Ni5'
_cell_volume   76.18196636
_cell_formula_units_Z   1
loop_
 _symmetry_equiv_pos_site_id
 _symmetry_equiv_pos_as_xyz
  1  'x, y, z'
loop_
 _atom_site_type_symbol
 _atom_site_label
 _atom_site_symmetry_multiplicity
 _atom_site_fract_x
 _atom_site_fract_y
 _atom_site_fract_z
 _atom_site_occupancy
  Ca  Ca1  1  0.00000000  0.92146057  0.00000000  1.0
  Mg  Mg1  1  0.21428153  0.27318203  0.59538317  1.0
  Ni  Ni1  1  0.42863318  0.70268416  0.56257808  1.0
  Ni  Ni2  1  0.60280037  0.46174535  0.25423938  1.0
  Ni  Ni3  1  0.22433963  0.52343470  0.73504543  1.0
  Ni  Ni4  1  0.51336062  0.10914281  0.47534561  1.0
  Ni  Ni5  1  0.00000000  0.00000000  0.13460574  1.0
