# generated using pymatgen
data_CaMgNi4
_symmetry_space_group_name_H-M   'P 1'
_cell_length_a   3.66740990
_cell_length_b   7.60802650
_cell_length_c   3.49768782
_cell_angle_alpha   37.84502792
_cell_angle_beta   67.95460510
_cell_angle_gamma   77.59835815
_symmetry_Int_Tables_number   1
_chemical_formula_structural   CaMgNi4
_chemical_formula_sum   'Ca1 Mg1 Ni4'
_cell_volume   54.92271162
_cell_formula_units_Z   1
loop_
 _symmetry_equiv_pos_site_id
 _symmetry_equiv_pos_as_xyz
  1  'x, y, z'
loop_
 _atom_site_type_symbol
 _atom_site_label
 _atom_site_symmetry_multiplicity
 _atom_site_fract_x
 _atom_site_fract_y
 _atom_site_fract_z
 _atom_site_occupancy
  Ca  Ca1  1  0.00000000  0.92256606  0.00000000  1.0
  Mg  Mg1  1  0.28243995  0.29204643  0.47857451  1.0
  Ni  Ni1  1  0.54889345  0.55214179  0.38420549  1.0
  Ni  Ni2  1  0.60855258  0.62630022  0.11987975  1.0
  Ni  Ni3  1  0.16275525  0.72199929  0.68477964  1.0
  Ni  Ni4  1  0.59185261  0.10846263  0.63118672  1.0
