# generated using pymatgen
data_CeIr4
_symmetry_space_group_name_H-M   'P 1'
_cell_length_a   4.02120209
_cell_length_b   6.91764307
_cell_length_c   3.07562137
_cell_angle_alpha   78.53950500
_cell_angle_beta   83.02642059
_cell_angle_gamma   106.26393890
_symmetry_Int_Tables_number   1
_chemical_formula_structural   CeIr4
_chemical_formula_sum   'Ce1 Ir4'
_cell_volume   79.05575288
_cell_formula_units_Z   1
loop_
 _symmetry_equiv_pos_site_id
 _symmetry_equiv_pos_as_xyz
  1  'x, y, z'
loop_
 _atom_site_type_symbol
 _atom_site_label
 _atom_site_symmetry_multiplicity
 _atom_site_fract_x
 _atom_site_fract_y
 _atom_site_fract_z
 _atom_site_occupancy
  Ce  Ce1  1  0.00000000  0.00000000  0.00000000  1.0
  Ir  Ir1  1  0.20098197  0.72692925  0.00000000  1.0
  Ir  Ir2  1  0.67759955  0.13482505  0.00000000  1.0
  Ir  Ir3  1  0.34247726  0.00000000  0.45352209  1.0
  Ir  Ir4  1  0.48725906  0.44607106  0.67667633  1.0
