# generated using pymatgen
data_CeTaRe2
_symmetry_space_group_name_H-M   'P 1'
_cell_length_a   3.85583568
_cell_length_b   4.10492325
_cell_length_c   3.29132986
_cell_angle_alpha   58.71018982
_cell_angle_beta   61.32466507
_cell_angle_gamma   54.07934189
_symmetry_Int_Tables_number   1
_chemical_formula_structural   CeTaRe2
_chemical_formula_sum   'Ce1 Ta1 Re2'
_cell_volume   34.87801752
_cell_formula_units_Z   1
loop_
 _symmetry_equiv_pos_site_id
 _symmetry_equiv_pos_as_xyz
  1  'x, y, z'
loop_
 _atom_site_type_symbol
 _atom_site_label
 _atom_site_symmetry_multiplicity
 _atom_site_fract_x
 _atom_site_fract_y
 _atom_site_fract_z
 _atom_site_occupancy
  Ce  Ce1  1  0.27476895  0.22332656  0.28972077  1.0
  Ta  Ta1  1  0.66102535  0.73500168  0.83367085  1.0
  Re  Re1  1  0.00000000  0.00000000  0.00000000  1.0
  Re  Re2  1  0.40579426  0.42901543  0.42453736  1.0
