# generated using pymatgen
data_Co2N
_symmetry_space_group_name_H-M   'P 1'
_cell_length_a   2.23898864
_cell_length_b   4.14019108
_cell_length_c   3.80622172
_cell_angle_alpha   89.37485504
_cell_angle_beta   91.34490967
_cell_angle_gamma   97.51062012
_symmetry_Int_Tables_number   1
_chemical_formula_structural   Co2N
_chemical_formula_sum   'Co4 N2'
_cell_volume   34.96963237
_cell_formula_units_Z   2
loop_
 _symmetry_equiv_pos_site_id
 _symmetry_equiv_pos_as_xyz
  1  'x, y, z'
loop_
 _atom_site_type_symbol
 _atom_site_label
 _atom_site_symmetry_multiplicity
 _atom_site_fract_x
 _atom_site_fract_y
 _atom_site_fract_z
 _atom_site_occupancy
  Co  Co1  1  0.70955962  0.12980413  0.82399905  1.0
  Co  Co2  1  0.35425970  0.79605830  0.00000000  1.0
  Co  Co3  1  0.00000000  0.12901083  0.14029467  1.0
  Co  Co4  1  0.00000000  0.86373770  0.35544086  1.0
  N  N1  1  0.69976562  0.51036215  0.25179255  1.0
  N  N2  1  0.13454169  0.00000000  0.93305123  1.0
