# generated using pymatgen
data_Co3Mo
_symmetry_space_group_name_H-M   'P 1'
_cell_length_a   2.56368947
_cell_length_b   2.42253900
_cell_length_c   2.72705317
_cell_angle_alpha   94.82360840
_cell_angle_beta   89.53879547
_cell_angle_gamma   77.69140625
_symmetry_Int_Tables_number   1
_chemical_formula_structural   Co3Mo
_chemical_formula_sum   'Co3 Mo1'
_cell_volume   16.48294879
_cell_formula_units_Z   1
loop_
 _symmetry_equiv_pos_site_id
 _symmetry_equiv_pos_as_xyz
  1  'x, y, z'
loop_
 _atom_site_type_symbol
 _atom_site_label
 _atom_site_symmetry_multiplicity
 _atom_site_fract_x
 _atom_site_fract_y
 _atom_site_fract_z
 _atom_site_occupancy
  Co  Co1  1  0.68515378  0.28129262  0.00000000  1.0
  Co  Co2  1  0.43811917  0.00000000  0.58950537  1.0
  Co  Co3  1  0.00000000  0.49919501  0.34326544  1.0
  Mo  Mo1  1  0.00000000  0.00000000  0.00000000  1.0
