# generated using pymatgen
data_Co3W
_symmetry_space_group_name_H-M   'P 1'
_cell_length_a   3.14329910
_cell_length_b   3.17944837
_cell_length_c   2.99983835
_cell_angle_alpha   91.29578400
_cell_angle_beta   88.72220612
_cell_angle_gamma   105.88079834
_symmetry_Int_Tables_number   1
_chemical_formula_structural   Co3W
_chemical_formula_sum   'Co6 W2'
_cell_volume   28.82458056
_cell_formula_units_Z   2
loop_
 _symmetry_equiv_pos_site_id
 _symmetry_equiv_pos_as_xyz
  1  'x, y, z'
loop_
 _atom_site_type_symbol
 _atom_site_label
 _atom_site_symmetry_multiplicity
 _atom_site_fract_x
 _atom_site_fract_y
 _atom_site_fract_z
 _atom_site_occupancy
  Co  Co1  1  0.88391799  0.74140620  0.22459957  1.0
  Co  Co2  1  0.10706481  0.81411189  0.85194367  1.0
  Co  Co3  1  0.65685034  0.82100892  0.85284722  1.0
  Co  Co4  1  0.32525390  0.12017387  0.36078367  1.0
  Co  Co5  1  0.86604095  0.00000000  0.19283324  1.0
  Co  Co6  1  0.13287953  0.35649431  0.79298794  1.0
  W  W1  1  0.15698719  0.67561179  0.12592548  1.0
  W  W2  1  0.49905491  0.34561306  0.81913996  1.0
