# generated using pymatgen
data_Co4C3
_symmetry_space_group_name_H-M   'P 1'
_cell_length_a   1.63834167
_cell_length_b   3.43007016
_cell_length_c   2.15570545
_cell_angle_alpha   97.27452850
_cell_angle_beta   85.52932739
_cell_angle_gamma   84.21833038
_symmetry_Int_Tables_number   1
_chemical_formula_structural   Co4C3
_chemical_formula_sum   'Co4 C3'
_cell_volume   11.90501889
_cell_formula_units_Z   1
loop_
 _symmetry_equiv_pos_site_id
 _symmetry_equiv_pos_as_xyz
  1  'x, y, z'
loop_
 _atom_site_type_symbol
 _atom_site_label
 _atom_site_symmetry_multiplicity
 _atom_site_fract_x
 _atom_site_fract_y
 _atom_site_fract_z
 _atom_site_occupancy
  Co  Co1  1  0.00000000  0.83915937  0.79570174  1.0
  Co  Co2  1  0.19582981  0.33732933  0.43352497  1.0
  Co  Co3  1  0.37763238  0.10113728  0.84262180  1.0
  Co  Co4  1  0.60093129  0.81586742  0.00000000  1.0
  C  C1  1  0.00000000  0.11072603  0.00000000  1.0
  C  C2  1  0.36532569  0.41284660  0.41766554  1.0
  C  C3  1  0.00000000  0.00000000  0.00000000  1.0
