# generated using pymatgen
data_Co5H
_symmetry_space_group_name_H-M   'P 1'
_cell_length_a   2.70741773
_cell_length_b   4.97705460
_cell_length_c   3.47815442
_cell_angle_alpha   88.22932434
_cell_angle_beta   100.25463104
_cell_angle_gamma   123.25566101
_symmetry_Int_Tables_number   1
_chemical_formula_structural   Co5H
_chemical_formula_sum   'Co5 H1'
_cell_volume   38.43948304
_cell_formula_units_Z   1
loop_
 _symmetry_equiv_pos_site_id
 _symmetry_equiv_pos_as_xyz
  1  'x, y, z'
loop_
 _atom_site_type_symbol
 _atom_site_label
 _atom_site_symmetry_multiplicity
 _atom_site_fract_x
 _atom_site_fract_y
 _atom_site_fract_z
 _atom_site_occupancy
  Co  Co1  1  0.00000000  0.69455695  0.41129255  1.0
  Co  Co2  1  0.17987686  0.74508363  0.00000000  1.0
  Co  Co3  1  0.81891501  0.41772291  0.00000000  1.0
  Co  Co4  1  0.53593540  0.00000000  0.55033594  1.0
  Co  Co5  1  0.49400499  0.65720379  0.53165495  1.0
  H  H1  1  0.00000000  0.00000000  0.00000000  1.0
