# generated using pymatgen
data_Co5Mo3P4
_symmetry_space_group_name_H-M   'P 1'
_cell_length_a   2.70329618
_cell_length_b   4.01356459
_cell_length_c   5.84952211
_cell_angle_alpha   78.35791779
_cell_angle_beta   72.75373077
_cell_angle_gamma   93.86197662
_symmetry_Int_Tables_number   1
_chemical_formula_structural   Co5Mo3P4
_chemical_formula_sum   'Co5 Mo3 P4'
_cell_volume   58.81468172
_cell_formula_units_Z   1
loop_
 _symmetry_equiv_pos_site_id
 _symmetry_equiv_pos_as_xyz
  1  'x, y, z'
loop_
 _atom_site_type_symbol
 _atom_site_label
 _atom_site_symmetry_multiplicity
 _atom_site_fract_x
 _atom_site_fract_y
 _atom_site_fract_z
 _atom_site_occupancy
  Co  Co1  1  0.58781058  0.72912121  0.22249374  1.0
  Co  Co2  1  0.29375225  0.72848976  0.10576215  1.0
  Co  Co3  1  0.66601092  0.00000000  0.82807851  1.0
  Co  Co4  1  0.13508266  0.23240894  0.28909549  1.0
  Co  Co5  1  0.60201460  0.81141961  0.72609097  1.0
  Mo  Mo1  1  0.53012431  0.23663780  0.67841899  1.0
  Mo  Mo2  1  0.82433772  0.17727110  0.35784936  1.0
  Mo  Mo3  1  0.64249098  0.50915647  0.22950566  1.0
  P  P1  1  0.24418503  0.37024716  0.48835072  1.0
  P  P2  1  0.30206016  0.16000195  0.19989218  1.0
  P  P3  1  0.63451684  0.44364640  0.30593646  1.0
  P  P4  1  0.44789141  0.88250673  0.84197432  1.0
