# generated using pymatgen
data_Co6HW2
_symmetry_space_group_name_H-M   'P 1'
_cell_length_a   2.39883947
_cell_length_b   2.85180330
_cell_length_c   2.30298638
_cell_angle_alpha   77.68101501
_cell_angle_beta   100.95842743
_cell_angle_gamma   117.37056732
_symmetry_Int_Tables_number   1
_chemical_formula_structural   Co6HW2
_chemical_formula_sum   'Co6 H1 W2'
_cell_volume   13.59182656
_cell_formula_units_Z   1
loop_
 _symmetry_equiv_pos_site_id
 _symmetry_equiv_pos_as_xyz
  1  'x, y, z'
loop_
 _atom_site_type_symbol
 _atom_site_label
 _atom_site_symmetry_multiplicity
 _atom_site_fract_x
 _atom_site_fract_y
 _atom_site_fract_z
 _atom_site_occupancy
  Co  Co1  1  0.61582708  0.79437053  0.20841262  1.0
  Co  Co2  1  0.00000000  0.80904269  0.63690203  1.0
  Co  Co3  1  0.35348150  0.78077263  0.81969869  1.0
  Co  Co4  1  0.32815760  0.00000000  0.16719365  1.0
  Co  Co5  1  0.79529917  0.00000000  0.47031525  1.0
  Co  Co6  1  0.26475757  0.20024362  0.70524669  1.0
  H  H1  1  0.00000000  0.00000000  0.00000000  1.0
  W  W1  1  0.43025944  0.58084273  0.34840140  1.0
  W  W2  1  0.76842779  0.20943537  0.85042256  1.0
