# generated using pymatgen
data_Co7Mo5
_symmetry_space_group_name_H-M   'P 1'
_cell_length_a   4.76258516
_cell_length_b   4.93760967
_cell_length_c   6.77377892
_cell_angle_alpha   46.25713348
_cell_angle_beta   45.92411423
_cell_angle_gamma   48.07902908
_symmetry_Int_Tables_number   1
_chemical_formula_structural   Co7Mo5
_chemical_formula_sum   'Co7 Mo5'
_cell_volume   77.11399096
_cell_formula_units_Z   1
loop_
 _symmetry_equiv_pos_site_id
 _symmetry_equiv_pos_as_xyz
  1  'x, y, z'
loop_
 _atom_site_type_symbol
 _atom_site_label
 _atom_site_symmetry_multiplicity
 _atom_site_fract_x
 _atom_site_fract_y
 _atom_site_fract_z
 _atom_site_occupancy
  Co  Co1  1  0.12325746  0.00000000  0.65524787  1.0
  Co  Co2  1  0.60818809  0.82198703  0.83090746  1.0
  Co  Co3  1  0.13593596  0.11472961  0.00000000  1.0
  Co  Co4  1  0.52580667  0.00000000  0.00000000  1.0
  Co  Co5  1  0.89494920  0.90063369  0.76061714  1.0
  Co  Co6  1  0.89477313  0.54705888  0.85272944  1.0
  Co  Co7  1  0.25893223  0.75676644  0.11667106  1.0
  Mo  Mo1  1  0.67992455  0.94343197  0.90285766  1.0
  Mo  Mo2  1  0.67171663  0.55993938  0.81867182  1.0
  Mo  Mo3  1  0.44043598  0.45068648  0.20145269  1.0
  Mo  Mo4  1  0.59665984  0.36491877  0.10094908  1.0
  Mo  Mo5  1  0.00000000  0.00000000  0.00000000  1.0
