# generated using pymatgen
data_CoB2W
_symmetry_space_group_name_H-M   'P 1'
_cell_length_a   1.14399624
_cell_length_b   2.59867167
_cell_length_c   1.80467987
_cell_angle_alpha   78.21264648
_cell_angle_beta   59.85658646
_cell_angle_gamma   70.15570068
_symmetry_Int_Tables_number   1
_chemical_formula_structural   CoB2W
_chemical_formula_sum   'Co1 B2 W1'
_cell_volume   4.36029040
_cell_formula_units_Z   1
loop_
 _symmetry_equiv_pos_site_id
 _symmetry_equiv_pos_as_xyz
  1  'x, y, z'
loop_
 _atom_site_type_symbol
 _atom_site_label
 _atom_site_symmetry_multiplicity
 _atom_site_fract_x
 _atom_site_fract_y
 _atom_site_fract_z
 _atom_site_occupancy
  Co  Co1  1  0.00000000  0.00000000  0.00000000  1.0
  B  B1  1  0.45992106  0.67698473  0.38420606  1.0
  B  B2  1  0.65044510  0.20370698  0.72779876  1.0
  W  W1  1  0.69860619  0.73003066  0.61582249  1.0
