# generated using pymatgen
data_CoB
_symmetry_space_group_name_H-M   'P 1'
_cell_length_a   2.19552851
_cell_length_b   3.95509791
_cell_length_c   4.66472530
_cell_angle_alpha   91.03970337
_cell_angle_beta   99.93566132
_cell_angle_gamma   82.91555023
_symmetry_Int_Tables_number   1
_chemical_formula_structural   CoB
_chemical_formula_sum   'Co4 B4'
_cell_volume   39.59396205
_cell_formula_units_Z   4
loop_
 _symmetry_equiv_pos_site_id
 _symmetry_equiv_pos_as_xyz
  1  'x, y, z'
loop_
 _atom_site_type_symbol
 _atom_site_label
 _atom_site_symmetry_multiplicity
 _atom_site_fract_x
 _atom_site_fract_y
 _atom_site_fract_z
 _atom_site_occupancy
  Co  Co1  1  0.11549464  0.43647569  0.72442347  1.0
  Co  Co2  1  0.68213856  0.38522339  0.38717163  1.0
  Co  Co3  1  0.66814464  0.86997926  0.84645927  1.0
  Co  Co4  1  0.18402183  0.00000000  0.17354718  1.0
  B  B1  1  0.14804205  0.92139488  0.47398686  1.0
  B  B2  1  0.84905779  0.00000000  0.62458634  1.0
  B  B3  1  0.84757197  0.37226191  0.88978893  1.0
  B  B4  1  0.23164412  0.39582235  0.21798858  1.0
