# generated using pymatgen
data_CoC
_symmetry_space_group_name_H-M   'P 1'
_cell_length_a   1.54659355
_cell_length_b   2.58491230
_cell_length_c   3.52209616
_cell_angle_alpha   93.94863892
_cell_angle_beta   99.80956268
_cell_angle_gamma   104.72183228
_symmetry_Int_Tables_number   1
_chemical_formula_structural   CoC
_chemical_formula_sum   'Co3 C3'
_cell_volume   13.32605063
_cell_formula_units_Z   3
loop_
 _symmetry_equiv_pos_site_id
 _symmetry_equiv_pos_as_xyz
  1  'x, y, z'
loop_
 _atom_site_type_symbol
 _atom_site_label
 _atom_site_symmetry_multiplicity
 _atom_site_fract_x
 _atom_site_fract_y
 _atom_site_fract_z
 _atom_site_occupancy
  Co  Co1  1  0.00000000  0.65428364  0.63526094  1.0
  Co  Co2  1  0.00000000  0.42881352  0.28926295  1.0
  Co  Co3  1  0.37375730  0.00000000  0.90456510  1.0
  C  C1  1  0.66083610  0.89283925  0.00000000  1.0
  C  C2  1  0.00000000  0.00000000  0.00000000  1.0
  C  C3  1  0.67975301  0.42188743  0.31962591  1.0
