# generated using pymatgen
data_CoMoP
_symmetry_space_group_name_H-M   'P 1'
_cell_length_a   1.37273693
_cell_length_b   3.19437885
_cell_length_c   5.03540897
_cell_angle_alpha   86.61138916
_cell_angle_beta   101.19454956
_cell_angle_gamma   84.61017609
_symmetry_Int_Tables_number   1
_chemical_formula_structural   CoMoP
_chemical_formula_sum   'Co4 Mo4 P4'
_cell_volume   21.49686983
_cell_formula_units_Z   4
loop_
 _symmetry_equiv_pos_site_id
 _symmetry_equiv_pos_as_xyz
  1  'x, y, z'
loop_
 _atom_site_type_symbol
 _atom_site_label
 _atom_site_symmetry_multiplicity
 _atom_site_fract_x
 _atom_site_fract_y
 _atom_site_fract_z
 _atom_site_occupancy
  Co  Co1  1  0.84612381  0.49972340  0.47858357  1.0
  Co  Co2  1  0.36002225  0.87149322  0.00000000  1.0
  Co  Co3  1  0.76002556  0.25915217  0.88356113  1.0
  Co  Co4  1  0.19653878  0.23737842  0.27291432  1.0
  Mo  Mo1  1  0.17456523  0.40969241  0.94577688  1.0
  Mo  Mo2  1  0.24996576  0.94656754  0.49846843  1.0
  Mo  Mo3  1  0.63348156  0.31080002  0.45818093  1.0
  Mo  Mo4  1  0.57628202  0.29545358  0.00000000  1.0
  P  P1  1  0.30695713  0.65950692  0.85537457  1.0
  P  P2  1  0.00000000  0.00000000  0.00000000  1.0
  P  P3  1  0.66906869  0.23053527  0.51566386  1.0
  P  P4  1  0.83175272  0.64759159  0.69337487  1.0
