# generated using pymatgen
data_CoP2Rh
_symmetry_space_group_name_H-M   'P 1'
_cell_length_a   3.44515480
_cell_length_b   5.54974475
_cell_length_c   9.10882120
_cell_angle_alpha   92.52304525
_cell_angle_beta   89.99999910
_cell_angle_gamma   89.99999924
_symmetry_Int_Tables_number   1
_chemical_formula_structural   CoP2Rh
_chemical_formula_sum   'Co3 P6 Rh3'
_cell_volume   173.98937022
_cell_formula_units_Z   3
loop_
 _symmetry_equiv_pos_site_id
 _symmetry_equiv_pos_as_xyz
  1  'x, y, z'
loop_
 _atom_site_type_symbol
 _atom_site_label
 _atom_site_symmetry_multiplicity
 _atom_site_fract_x
 _atom_site_fract_y
 _atom_site_fract_z
 _atom_site_occupancy
  Co  Co0  1  0.00000012  0.19046740  0.24560158  1.0
  Co  Co1  1  0.00000012  0.80950229  0.75439547  1.0
  Co  Co2  1  0.00000010  0.00001052  0.99999320  1.0
  P  P3  1  0.50000006  0.23257178  0.08939986  1.0
  P  P4  1  0.50000004  0.75138314  0.60172102  1.0
  P  P5  1  0.50000006  0.76742188  0.91060309  1.0
  P  P6  1  0.50000003  0.24861245  0.39827779  1.0
  P  P7  1  0.00000005  0.21132671  0.76423506  1.0
  P  P8  1  0.00000003  0.78864675  0.23577681  1.0
  Rh  Rh9  1  0.99999999  0.50002477  0.49997664  1.0
  Rh  Rh10  1  0.99999967  0.50000985  0.00001019  1.0
  Rh  Rh11  1  0.99999974  0.00002248  0.50000926  1.0
