# generated using pymatgen
data_CoP2Os
_symmetry_space_group_name_H-M   'P 1'
_cell_length_a   4.15052738
_cell_length_b   4.15052543
_cell_length_c   4.15052592
_cell_angle_alpha   59.99994482
_cell_angle_beta   59.99995685
_cell_angle_gamma   59.99995141
_symmetry_Int_Tables_number   1
_chemical_formula_structural   CoP2Os
_chemical_formula_sum   'Co1 P2 Os1'
_cell_volume   50.55848044
_cell_formula_units_Z   1
loop_
 _symmetry_equiv_pos_site_id
 _symmetry_equiv_pos_as_xyz
  1  'x, y, z'
loop_
 _atom_site_type_symbol
 _atom_site_label
 _atom_site_symmetry_multiplicity
 _atom_site_fract_x
 _atom_site_fract_y
 _atom_site_fract_z
 _atom_site_occupancy
  Co  Co0  1  0.25000006  0.25000006  0.25000004  1.0
  P  P1  1  0.50000094  0.50000098  0.50000097  1.0
  P  P2  1  0.00000008  0.00000006  0.00000008  1.0
  Os  Os3  1  0.75000092  0.75000090  0.75000090  1.0
