# generated using pymatgen
data_CoRe3
_symmetry_space_group_name_H-M   'P 1'
_cell_length_a   7.88201189
_cell_length_b   4.36878538
_cell_length_c   2.07531595
_cell_angle_alpha   90.13421631
_cell_angle_beta   89.59749603
_cell_angle_gamma   114.26042938
_symmetry_Int_Tables_number   1
_chemical_formula_structural   CoRe3
_chemical_formula_sum   'Co2 Re6'
_cell_volume   65.15040428
_cell_formula_units_Z   2
loop_
 _symmetry_equiv_pos_site_id
 _symmetry_equiv_pos_as_xyz
  1  'x, y, z'
loop_
 _atom_site_type_symbol
 _atom_site_label
 _atom_site_symmetry_multiplicity
 _atom_site_fract_x
 _atom_site_fract_y
 _atom_site_fract_z
 _atom_site_occupancy
  Co  Co1  1  0.44962919  0.58022636  0.68494433  1.0
  Co  Co2  1  0.41253754  0.48608366  0.44537812  1.0
  Re  Re1  1  0.19792968  0.26701951  0.16813540  1.0
  Re  Re2  1  0.53972262  0.91448098  0.35197395  1.0
  Re  Re3  1  0.21438360  0.67633188  0.26666951  1.0
  Re  Re4  1  0.72259808  0.42396733  0.89982456  1.0
  Re  Re5  1  0.54169595  0.30121773  0.77446443  1.0
  Re  Re6  1  0.77780569  0.16897801  0.91604352  1.0
