# generated using pymatgen
data_CoTc3
_symmetry_space_group_name_H-M   'P 1'
_cell_length_a   4.28733206
_cell_length_b   4.60945606
_cell_length_c   2.66894269
_cell_angle_alpha   74.74322510
_cell_angle_beta   90.67462158
_cell_angle_gamma   125.08797455
_symmetry_Int_Tables_number   1
_chemical_formula_structural   CoTc3
_chemical_formula_sum   'Co2 Tc6'
_cell_volume   40.98289105
_cell_formula_units_Z   2
loop_
 _symmetry_equiv_pos_site_id
 _symmetry_equiv_pos_as_xyz
  1  'x, y, z'
loop_
 _atom_site_type_symbol
 _atom_site_label
 _atom_site_symmetry_multiplicity
 _atom_site_fract_x
 _atom_site_fract_y
 _atom_site_fract_z
 _atom_site_occupancy
  Co  Co1  1  0.39472568  0.61257869  0.70890403  1.0
  Co  Co2  1  0.54637933  0.30482948  0.20757511  1.0
  Tc  Tc1  1  0.11673549  0.22476774  0.17287493  1.0
  Tc  Tc2  1  0.71110934  0.91916806  0.25079212  1.0
  Tc  Tc3  1  0.13081348  0.74780416  0.14900681  1.0
  Tc  Tc4  1  0.73779976  0.58439934  0.59035182  1.0
  Tc  Tc5  1  0.33962545  0.00000000  0.76045382  1.0
  Tc  Tc6  1  0.83132052  0.17437908  0.74930835  1.0
