# generated using pymatgen
data_Cr2C
_symmetry_space_group_name_H-M   'P 1'
_cell_length_a   1.98052180
_cell_length_b   4.09817028
_cell_length_c   6.25553560
_cell_angle_alpha   102.23686981
_cell_angle_beta   104.47734833
_cell_angle_gamma   107.75218964
_symmetry_Int_Tables_number   1
_chemical_formula_structural   Cr2C
_chemical_formula_sum   'Cr6 C3'
_cell_volume   44.47509354
_cell_formula_units_Z   3
loop_
 _symmetry_equiv_pos_site_id
 _symmetry_equiv_pos_as_xyz
  1  'x, y, z'
loop_
 _atom_site_type_symbol
 _atom_site_label
 _atom_site_symmetry_multiplicity
 _atom_site_fract_x
 _atom_site_fract_y
 _atom_site_fract_z
 _atom_site_occupancy
  Cr  Cr1  1  0.46856049  0.73325813  0.86029905  1.0
  Cr  Cr2  1  0.00000000  0.21476465  0.92236018  1.0
  Cr  Cr3  1  0.58049214  0.15054473  0.30717987  1.0
  Cr  Cr4  1  0.81496674  0.71517986  0.36960298  1.0
  Cr  Cr5  1  0.28400534  0.43308583  0.61060357  1.0
  Cr  Cr6  1  0.88008994  0.46255973  0.52884907  1.0
  C  C1  1  0.47827074  0.52368820  0.83005881  1.0
  C  C2  1  0.19061112  0.39423534  0.29855150  1.0
  C  C3  1  0.30536658  0.00000000  0.00000000  1.0
