# generated using pymatgen
data_Cr3B4
_symmetry_space_group_name_H-M   'P 1'
_cell_length_a   2.15894222
_cell_length_b   1.56865489
_cell_length_c   6.02629614
_cell_angle_alpha   86.32569122
_cell_angle_beta   105.98007965
_cell_angle_gamma   85.76215363
_symmetry_Int_Tables_number   1
_chemical_formula_structural   Cr3B4
_chemical_formula_sum   'Cr3 B4'
_cell_volume   19.49055425
_cell_formula_units_Z   1
loop_
 _symmetry_equiv_pos_site_id
 _symmetry_equiv_pos_as_xyz
  1  'x, y, z'
loop_
 _atom_site_type_symbol
 _atom_site_label
 _atom_site_symmetry_multiplicity
 _atom_site_fract_x
 _atom_site_fract_y
 _atom_site_fract_z
 _atom_site_occupancy
  Cr  Cr1  1  0.14651784  0.16089883  0.21697339  1.0
  Cr  Cr2  1  0.84907049  0.74311125  0.60204190  1.0
  Cr  Cr3  1  0.29589927  0.00000000  0.00000000  1.0
  B  B1  1  0.94012904  0.32513881  0.89343238  1.0
  B  B2  1  0.00000000  0.58769989  0.16330004  1.0
  B  B3  1  0.32580125  0.28049368  0.81749731  1.0
  B  B4  1  0.87896383  0.53778243  0.00000000  1.0
