# generated using pymatgen
data_Cr3C2
_symmetry_space_group_name_H-M   'P 1'
_cell_length_a   3.37044549
_cell_length_b   1.80550885
_cell_length_c   4.64617634
_cell_angle_alpha   92.74334717
_cell_angle_beta   105.52868652
_cell_angle_gamma   96.87257385
_symmetry_Int_Tables_number   1
_chemical_formula_structural   Cr3C2
_chemical_formula_sum   'Cr6 C4'
_cell_volume   26.95136456
_cell_formula_units_Z   2
loop_
 _symmetry_equiv_pos_site_id
 _symmetry_equiv_pos_as_xyz
  1  'x, y, z'
loop_
 _atom_site_type_symbol
 _atom_site_label
 _atom_site_symmetry_multiplicity
 _atom_site_fract_x
 _atom_site_fract_y
 _atom_site_fract_z
 _atom_site_occupancy
  Cr  Cr1  1  0.25182086  0.82761073  0.82271177  1.0
  Cr  Cr2  1  0.20532036  0.30774522  0.86472964  1.0
  Cr  Cr3  1  0.52425939  0.24198100  0.43040437  1.0
  Cr  Cr4  1  0.76844710  0.94573748  0.00000000  1.0
  Cr  Cr5  1  0.00000000  0.32905269  0.52610552  1.0
  Cr  Cr6  1  0.73631114  0.80668294  0.64620805  1.0
  C  C1  1  0.80181277  0.28238431  0.62073946  1.0
  C  C2  1  0.20624384  0.74921435  0.66666667  1.0
  C  C3  1  0.56338722  0.24035573  0.11113513  1.0
  C  C4  1  0.53864330  0.00000000  0.75931478  1.0
