# generated using pymatgen
data_Cr
_symmetry_space_group_name_H-M   'P 1'
_cell_length_a   4.27903080
_cell_length_b   3.68439293
_cell_length_c   2.66307545
_cell_angle_alpha   95.39991760
_cell_angle_beta   105.30465698
_cell_angle_gamma   81.44455719
_symmetry_Int_Tables_number   1
_chemical_formula_structural   Cr
_chemical_formula_sum   Cr6
_cell_volume   39.97923352
_cell_formula_units_Z   6
loop_
 _symmetry_equiv_pos_site_id
 _symmetry_equiv_pos_as_xyz
  1  'x, y, z'
loop_
 _atom_site_type_symbol
 _atom_site_label
 _atom_site_symmetry_multiplicity
 _atom_site_fract_x
 _atom_site_fract_y
 _atom_site_fract_z
 _atom_site_occupancy
  Cr  Cr1  1  0.17025471  0.11147505  0.52083367  1.0
  Cr  Cr2  1  0.85261226  0.12527832  0.35804683  1.0
  Cr  Cr3  1  0.11887020  0.39689434  0.24408409  1.0
  Cr  Cr4  1  0.00000000  0.44236830  0.89591557  1.0
  Cr  Cr5  1  0.39553595  0.69875300  0.00000000  1.0
  Cr  Cr6  1  0.77973139  0.18492219  0.00000000  1.0
