# generated using pymatgen
data_CrB4
_symmetry_space_group_name_H-M   'P 1'
_cell_length_a   2.90179181
_cell_length_b   3.58712149
_cell_length_c   2.79591084
_cell_angle_alpha   100.51105499
_cell_angle_beta   82.39823914
_cell_angle_gamma   74.26902771
_symmetry_Int_Tables_number   1
_chemical_formula_structural   CrB4
_chemical_formula_sum   'Cr1 B4'
_cell_volume   27.03010345
_cell_formula_units_Z   1
loop_
 _symmetry_equiv_pos_site_id
 _symmetry_equiv_pos_as_xyz
  1  'x, y, z'
loop_
 _atom_site_type_symbol
 _atom_site_label
 _atom_site_symmetry_multiplicity
 _atom_site_fract_x
 _atom_site_fract_y
 _atom_site_fract_z
 _atom_site_occupancy
  Cr  Cr1  1  0.00000000  0.00000000  0.00000000  1.0
  B  B1  1  0.49543846  0.60158330  0.00000000  1.0
  B  B2  1  0.68155116  0.00000000  0.56679964  1.0
  B  B3  1  0.37422842  0.67515552  0.38814515  1.0
  B  B4  1  0.25463957  0.35449189  0.88309276  1.0
