# generated using pymatgen
data_CrB
_symmetry_space_group_name_H-M   'P 1'
_cell_length_a   1.72230744
_cell_length_b   2.22872901
_cell_length_c   2.53388238
_cell_angle_alpha   106.97414398
_cell_angle_beta   106.58916473
_cell_angle_gamma   64.69044495
_symmetry_Int_Tables_number   1
_chemical_formula_structural   CrB
_chemical_formula_sum   'Cr2 B2'
_cell_volume   8.26324566
_cell_formula_units_Z   2
loop_
 _symmetry_equiv_pos_site_id
 _symmetry_equiv_pos_as_xyz
  1  'x, y, z'
loop_
 _atom_site_type_symbol
 _atom_site_label
 _atom_site_symmetry_multiplicity
 _atom_site_fract_x
 _atom_site_fract_y
 _atom_site_fract_z
 _atom_site_occupancy
  Cr  Cr1  1  0.88225961  0.28400654  0.43609494  1.0
  Cr  Cr2  1  0.27785605  0.87196493  0.60997289  1.0
  B  B1  1  0.86610949  0.33238131  0.97288281  1.0
  B  B2  1  0.17395753  0.68484479  0.26404428  1.0
