# generated using pymatgen
data_CrCoN2
_symmetry_space_group_name_H-M   'P 1'
_cell_length_a   2.77526074
_cell_length_b   2.77526079
_cell_length_c   4.92456196
_cell_angle_alpha   89.99999972
_cell_angle_beta   89.99999995
_cell_angle_gamma   119.99999895
_symmetry_Int_Tables_number   1
_chemical_formula_structural   CrCoN2
_chemical_formula_sum   'Cr1 Co1 N2'
_cell_volume   32.84776569
_cell_formula_units_Z   1
loop_
 _symmetry_equiv_pos_site_id
 _symmetry_equiv_pos_as_xyz
  1  'x, y, z'
loop_
 _atom_site_type_symbol
 _atom_site_label
 _atom_site_symmetry_multiplicity
 _atom_site_fract_x
 _atom_site_fract_y
 _atom_site_fract_z
 _atom_site_occupancy
  Cr  Cr0  1  0.00000003  0.00000003  0.50000000  1.0
  Co  Co1  1  0.99999998  0.99999998  0.99999998  1.0
  N  N2  1  0.33333333  0.66666667  0.24521740  1.0
  N  N3  1  0.66666667  0.33333333  0.75478262  1.0
