# generated using pymatgen
data_CrHRu2
_symmetry_space_group_name_H-M   'P 1'
_cell_length_a   2.31771493
_cell_length_b   2.96313810
_cell_length_c   2.22314477
_cell_angle_alpha   63.35987473
_cell_angle_beta   68.18445587
_cell_angle_gamma   63.35184479
_symmetry_Int_Tables_number   1
_chemical_formula_structural   CrHRu2
_chemical_formula_sum   'Cr1 H1 Ru2'
_cell_volume   11.91638201
_cell_formula_units_Z   1
loop_
 _symmetry_equiv_pos_site_id
 _symmetry_equiv_pos_as_xyz
  1  'x, y, z'
loop_
 _atom_site_type_symbol
 _atom_site_label
 _atom_site_symmetry_multiplicity
 _atom_site_fract_x
 _atom_site_fract_y
 _atom_site_fract_z
 _atom_site_occupancy
  Cr  Cr1  1  0.71011496  0.44589847  0.68985063  1.0
  H  H1  1  0.00000000  0.00000000  0.00000000  1.0
  Ru  Ru1  1  0.33903781  0.45864713  0.26135781  1.0
  Ru  Ru2  1  0.74660170  0.59533495  0.68002075  1.0
