# generated using pymatgen
data_CrSiRu2
_symmetry_space_group_name_H-M   'P 1'
_cell_length_a   3.41821790
_cell_length_b   3.89248562
_cell_length_c   2.42888522
_cell_angle_alpha   67.62798309
_cell_angle_beta   71.87692261
_cell_angle_gamma   55.79172516
_symmetry_Int_Tables_number   1
_chemical_formula_structural   CrSiRu2
_chemical_formula_sum   'Cr1 Si1 Ru2'
_cell_volume   24.51475396
_cell_formula_units_Z   1
loop_
 _symmetry_equiv_pos_site_id
 _symmetry_equiv_pos_as_xyz
  1  'x, y, z'
loop_
 _atom_site_type_symbol
 _atom_site_label
 _atom_site_symmetry_multiplicity
 _atom_site_fract_x
 _atom_site_fract_y
 _atom_site_fract_z
 _atom_site_occupancy
  Cr  Cr1  1  0.63839674  0.36468333  0.45605299  1.0
  Si  Si1  1  0.00000000  0.00000000  0.00000000  1.0
  Ru  Ru1  1  0.39716977  0.35152417  0.26573849  1.0
  Ru  Ru2  1  0.80559075  0.69265962  0.85587621  1.0
