# generated using pymatgen
data_CrWN2
_symmetry_space_group_name_H-M   'P 1'
_cell_length_a   7.12889814
_cell_length_b   5.41837788
_cell_length_c   7.32148457
_cell_angle_alpha   30.51199722
_cell_angle_beta   29.67269325
_cell_angle_gamma   28.05776978
_symmetry_Int_Tables_number   1
_chemical_formula_structural   CrWN2
_chemical_formula_sum   'Cr1 W1 N2'
_cell_volume   60.15079222
_cell_formula_units_Z   1
loop_
 _symmetry_equiv_pos_site_id
 _symmetry_equiv_pos_as_xyz
  1  'x, y, z'
loop_
 _atom_site_type_symbol
 _atom_site_label
 _atom_site_symmetry_multiplicity
 _atom_site_fract_x
 _atom_site_fract_y
 _atom_site_fract_z
 _atom_site_occupancy
  Cr  Cr1  1  0.88724566  0.89431262  0.95038056  1.0
  W  W1  1  0.91810739  0.95368862  0.88050008  1.0
  N  N1  1  0.42943162  0.50026834  0.23564866  1.0
  N  N2  1  0.64046419  0.14533186  0.27109444  1.0
