# generated using pymatgen
data_CsTlF3
_symmetry_space_group_name_H-M   'P 1'
_cell_length_a   2.90895057
_cell_length_b   2.15129066
_cell_length_c   3.46764302
_cell_angle_alpha   101.23126984
_cell_angle_beta   99.48641205
_cell_angle_gamma   92.19007874
_symmetry_Int_Tables_number   1
_chemical_formula_structural   CsTlF3
_chemical_formula_sum   'Cs1 Tl1 F3'
_cell_volume   20.93831442
_cell_formula_units_Z   1
loop_
 _symmetry_equiv_pos_site_id
 _symmetry_equiv_pos_as_xyz
  1  'x, y, z'
loop_
 _atom_site_type_symbol
 _atom_site_label
 _atom_site_symmetry_multiplicity
 _atom_site_fract_x
 _atom_site_fract_y
 _atom_site_fract_z
 _atom_site_occupancy
  Cs  Cs1  1  0.00000000  0.00000000  0.00000000  1.0
  Tl  Tl1  1  0.61752856  0.60314953  0.56066453  1.0
  F  F1  1  0.00000000  0.48973042  0.63638431  1.0
  F  F2  1  0.75893122  0.41731611  0.00000000  1.0
  F  F3  1  0.75518322  0.00000000  0.34851873  1.0
