# generated using pymatgen
data_Cu3SnC
_symmetry_space_group_name_H-M   'P 1'
_cell_length_a   1.38866448
_cell_length_b   3.53452492
_cell_length_c   3.00864387
_cell_angle_alpha   102.06957245
_cell_angle_beta   92.44631195
_cell_angle_gamma   94.22370911
_symmetry_Int_Tables_number   1
_chemical_formula_structural   Cu3SnC
_chemical_formula_sum   'Cu3 Sn1 C1'
_cell_volume   14.37601054
_cell_formula_units_Z   1
loop_
 _symmetry_equiv_pos_site_id
 _symmetry_equiv_pos_as_xyz
  1  'x, y, z'
loop_
 _atom_site_type_symbol
 _atom_site_label
 _atom_site_symmetry_multiplicity
 _atom_site_fract_x
 _atom_site_fract_y
 _atom_site_fract_z
 _atom_site_occupancy
  Cu  Cu1  1  0.53153616  0.00000000  0.56217927  1.0
  Cu  Cu2  1  0.00000000  0.60409266  0.71541113  1.0
  Cu  Cu3  1  0.64980984  0.46218383  0.00000000  1.0
  Sn  Sn1  1  0.00000000  0.00000000  0.00000000  1.0
  C  C1  1  0.48389524  0.53868002  0.61928540  1.0
