# generated using pymatgen
data_DyFe3C
_symmetry_space_group_name_H-M   'P 1'
_cell_length_a   2.70460153
_cell_length_b   1.80540872
_cell_length_c   3.87733984
_cell_angle_alpha   83.05680847
_cell_angle_beta   95.49605560
_cell_angle_gamma   104.18569946
_symmetry_Int_Tables_number   1
_chemical_formula_structural   DyFe3C
_chemical_formula_sum   'Dy1 Fe3 C1'
_cell_volume   18.17767748
_cell_formula_units_Z   1
loop_
 _symmetry_equiv_pos_site_id
 _symmetry_equiv_pos_as_xyz
  1  'x, y, z'
loop_
 _atom_site_type_symbol
 _atom_site_label
 _atom_site_symmetry_multiplicity
 _atom_site_fract_x
 _atom_site_fract_y
 _atom_site_fract_z
 _atom_site_occupancy
  Dy  Dy1  1  0.00000000  0.00000000  0.00000000  1.0
  Fe  Fe1  1  0.00000000  0.53429693  0.56113935  1.0
  Fe  Fe2  1  0.49912375  0.60974967  0.00000000  1.0
  Fe  Fe3  1  0.59402943  0.00000000  0.28312606  1.0
  C  C1  1  0.10394615  0.10347694  0.25035375  1.0
