# generated using pymatgen
data_DyNi2
_symmetry_space_group_name_H-M   'P 1'
_cell_length_a   3.78560567
_cell_length_b   4.57191706
_cell_length_c   3.50158119
_cell_angle_alpha   47.82081985
_cell_angle_beta   59.80307770
_cell_angle_gamma   52.07819366
_symmetry_Int_Tables_number   1
_chemical_formula_structural   DyNi2
_chemical_formula_sum   'Dy2 Ni4'
_cell_volume   35.00208195
_cell_formula_units_Z   2
loop_
 _symmetry_equiv_pos_site_id
 _symmetry_equiv_pos_as_xyz
  1  'x, y, z'
loop_
 _atom_site_type_symbol
 _atom_site_label
 _atom_site_symmetry_multiplicity
 _atom_site_fract_x
 _atom_site_fract_y
 _atom_site_fract_z
 _atom_site_occupancy
  Dy  Dy1  1  0.00000000  0.00000000  0.19032946  1.0
  Dy  Dy2  1  0.87237388  0.91773587  0.92730761  1.0
  Ni  Ni1  1  0.46806628  0.00000000  0.56681615  1.0
  Ni  Ni2  1  0.00000000  0.14315203  0.81275654  1.0
  Ni  Ni3  1  0.73898882  0.57899761  0.55700928  1.0
  Ni  Ni4  1  0.70538926  0.24631557  0.00000000  1.0
