# generated using pymatgen
data_ErPt2
_symmetry_space_group_name_H-M   'P 1'
_cell_length_a   2.75189495
_cell_length_b   4.39642620
_cell_length_c   4.77132797
_cell_angle_alpha   116.87026215
_cell_angle_beta   106.59133911
_cell_angle_gamma   103.56187439
_symmetry_Int_Tables_number   1
_chemical_formula_structural   ErPt2
_chemical_formula_sum   'Er1 Pt2'
_cell_volume   44.66478247
_cell_formula_units_Z   1
loop_
 _symmetry_equiv_pos_site_id
 _symmetry_equiv_pos_as_xyz
  1  'x, y, z'
loop_
 _atom_site_type_symbol
 _atom_site_label
 _atom_site_symmetry_multiplicity
 _atom_site_fract_x
 _atom_site_fract_y
 _atom_site_fract_z
 _atom_site_occupancy
  Er  Er1  1  0.00000000  0.00000000  0.00000000  1.0
  Pt  Pt1  1  0.63514221  0.73937058  0.17295185  1.0
  Pt  Pt2  1  0.43307304  0.59711415  0.73342079  1.0
