# generated using pymatgen
data_Fe2B3
_symmetry_space_group_name_H-M   'P 1'
_cell_length_a   3.59438896
_cell_length_b   3.50531173
_cell_length_c   2.31313634
_cell_angle_alpha   106.41873932
_cell_angle_beta   94.37733459
_cell_angle_gamma   78.31655884
_symmetry_Int_Tables_number   1
_chemical_formula_structural   Fe2B3
_chemical_formula_sum   'Fe2 B3'
_cell_volume   27.37094068
_cell_formula_units_Z   1
loop_
 _symmetry_equiv_pos_site_id
 _symmetry_equiv_pos_as_xyz
  1  'x, y, z'
loop_
 _atom_site_type_symbol
 _atom_site_label
 _atom_site_symmetry_multiplicity
 _atom_site_fract_x
 _atom_site_fract_y
 _atom_site_fract_z
 _atom_site_occupancy
  Fe  Fe1  1  0.00000000  0.58954322  0.64568323  1.0
  Fe  Fe2  1  0.91902494  0.37764874  0.32647261  1.0
  B  B1  1  0.52338237  0.41025105  0.00000000  1.0
  B  B2  1  0.28594834  0.16136935  0.62302089  1.0
  B  B3  1  0.00000000  0.00000000  0.00000000  1.0
