# generated using pymatgen
data_Fe2B4Mo
_symmetry_space_group_name_H-M   'P 1'
_cell_length_a   7.04092836
_cell_length_b   7.65677691
_cell_length_c   5.49529219
_cell_angle_alpha   159.00506592
_cell_angle_beta   150.43179321
_cell_angle_gamma   31.46241951
_symmetry_Int_Tables_number   1
_chemical_formula_structural   Fe2B4Mo
_chemical_formula_sum   'Fe2 B4 Mo1'
_cell_volume   50.95304557
_cell_formula_units_Z   1
loop_
 _symmetry_equiv_pos_site_id
 _symmetry_equiv_pos_as_xyz
  1  'x, y, z'
loop_
 _atom_site_type_symbol
 _atom_site_label
 _atom_site_symmetry_multiplicity
 _atom_site_fract_x
 _atom_site_fract_y
 _atom_site_fract_z
 _atom_site_occupancy
  Fe  Fe1  1  0.87392950  0.64942557  0.00000000  1.0
  Fe  Fe2  1  0.20261258  0.18498275  0.00000000  1.0
  B  B1  1  0.33853391  0.91657996  0.50345445  1.0
  B  B2  1  0.64802015  0.00000000  0.62170196  1.0
  B  B3  1  0.42565805  0.59504056  0.00000000  1.0
  B  B4  1  0.42496511  0.58300602  0.00000000  1.0
  Mo  Mo1  1  0.00000000  0.64698690  0.33761430  1.0
