# generated using pymatgen
data_Fe2HW
_symmetry_space_group_name_H-M   'P 1'
_cell_length_a   2.61044145
_cell_length_b   2.98843288
_cell_length_c   2.52886581
_cell_angle_alpha   54.24678421
_cell_angle_beta   55.83862686
_cell_angle_gamma   55.21807861
_symmetry_Int_Tables_number   1
_chemical_formula_structural   Fe2HW
_chemical_formula_sum   'Fe2 H1 W1'
_cell_volume   12.35481036
_cell_formula_units_Z   1
loop_
 _symmetry_equiv_pos_site_id
 _symmetry_equiv_pos_as_xyz
  1  'x, y, z'
loop_
 _atom_site_type_symbol
 _atom_site_label
 _atom_site_symmetry_multiplicity
 _atom_site_fract_x
 _atom_site_fract_y
 _atom_site_fract_z
 _atom_site_occupancy
  Fe  Fe1  1  0.38160920  0.25467989  0.43047279  1.0
  Fe  Fe2  1  0.77597576  0.86955434  0.73811674  1.0
  H  H1  1  0.32886520  0.27667862  0.49929905  1.0
  W  W1  1  0.00000000  0.00000000  0.00000000  1.0
