# generated using pymatgen
data_Fe2N
_symmetry_space_group_name_H-M   'P 1'
_cell_length_a   2.55156732
_cell_length_b   3.05020571
_cell_length_c   2.74520469
_cell_angle_alpha   82.82136536
_cell_angle_beta   86.21989441
_cell_angle_gamma   64.35606384
_symmetry_Int_Tables_number   1
_chemical_formula_structural   Fe2N
_chemical_formula_sum   'Fe8 N4'
_cell_volume   19.10826647
_cell_formula_units_Z   4
loop_
 _symmetry_equiv_pos_site_id
 _symmetry_equiv_pos_as_xyz
  1  'x, y, z'
loop_
 _atom_site_type_symbol
 _atom_site_label
 _atom_site_symmetry_multiplicity
 _atom_site_fract_x
 _atom_site_fract_y
 _atom_site_fract_z
 _atom_site_occupancy
  Fe  Fe1  1  0.32902414  0.00000000  0.88952869  1.0
  Fe  Fe2  1  0.75844932  0.96659803  0.69024408  1.0
  Fe  Fe3  1  0.00000000  0.58446169  0.35873348  1.0
  Fe  Fe4  1  0.63066816  0.52911681  0.91655582  1.0
  Fe  Fe5  1  0.31508750  0.79307044  0.00000000  1.0
  Fe  Fe6  1  0.69512856  0.30006009  0.53834367  1.0
  Fe  Fe7  1  0.29922923  0.00000000  0.21009982  1.0
  Fe  Fe8  1  0.84908092  0.93280971  0.12792975  1.0
  N  N1  1  0.82470810  0.91822535  0.94429779  1.0
  N  N2  1  0.00000000  0.21603085  0.55552948  1.0
  N  N3  1  0.65509182  0.25828901  0.21780074  1.0
  N  N4  1  0.00000000  0.66809642  0.28179169  1.0
