# generated using pymatgen
data_Fe2Si
_symmetry_space_group_name_H-M   'P 1'
_cell_length_a   1.64399648
_cell_length_b   2.27821159
_cell_length_c   3.74707937
_cell_angle_alpha   82.93314362
_cell_angle_beta   84.01680756
_cell_angle_gamma   119.72045135
_symmetry_Int_Tables_number   1
_chemical_formula_structural   Fe2Si
_chemical_formula_sum   'Fe4 Si2'
_cell_volume   11.87112055
_cell_formula_units_Z   2
loop_
 _symmetry_equiv_pos_site_id
 _symmetry_equiv_pos_as_xyz
  1  'x, y, z'
loop_
 _atom_site_type_symbol
 _atom_site_label
 _atom_site_symmetry_multiplicity
 _atom_site_fract_x
 _atom_site_fract_y
 _atom_site_fract_z
 _atom_site_occupancy
  Fe  Fe1  1  0.44067118  0.63788772  0.62924713  1.0
  Fe  Fe2  1  0.47973409  0.19481012  0.32768536  1.0
  Fe  Fe3  1  0.00000000  0.00000000  0.26929200  1.0
  Fe  Fe4  1  0.00000000  0.00000000  0.00000000  1.0
  Si  Si1  1  0.45419744  0.22991922  0.71044904  1.0
  Si  Si2  1  0.40747118  0.74373353  0.33972275  1.0
