# generated using pymatgen
data_Fe7Mo6
_symmetry_space_group_name_H-M   'P 1'
_cell_length_a   9.50574684
_cell_length_b   6.27052784
_cell_length_c   6.65001869
_cell_angle_alpha   40.61751556
_cell_angle_beta   32.66621780
_cell_angle_gamma   45.43107224
_symmetry_Int_Tables_number   1
_chemical_formula_structural   Fe7Mo6
_chemical_formula_sum   'Fe7 Mo6'
_cell_volume   137.03971830
_cell_formula_units_Z   1
loop_
 _symmetry_equiv_pos_site_id
 _symmetry_equiv_pos_as_xyz
  1  'x, y, z'
loop_
 _atom_site_type_symbol
 _atom_site_label
 _atom_site_symmetry_multiplicity
 _atom_site_fract_x
 _atom_site_fract_y
 _atom_site_fract_z
 _atom_site_occupancy
  Fe  Fe1  1  0.49330863  0.00000000  0.00000000  1.0
  Fe  Fe2  1  0.11754197  0.00000000  0.75747883  1.0
  Fe  Fe3  1  0.84691411  0.84315395  0.41116247  1.0
  Fe  Fe4  1  0.88812083  0.31432566  0.85071981  1.0
  Fe  Fe5  1  0.00000000  0.12450159  0.00000000  1.0
  Fe  Fe6  1  0.00000000  0.37260175  0.00000000  1.0
  Fe  Fe7  1  0.34215751  0.89592493  0.83619595  1.0
  Mo  Mo1  1  0.65526122  0.24255344  0.23176304  1.0
  Mo  Mo2  1  0.00000000  0.20676079  0.31256068  1.0
  Mo  Mo3  1  0.20584042  0.29202163  0.56399280  1.0
  Mo  Mo4  1  0.57351547  0.74945331  0.75762051  1.0
  Mo  Mo5  1  0.28547150  0.63728273  0.00000000  1.0
  Mo  Mo6  1  0.81426239  0.89118910  0.85660303  1.0
