# generated using pymatgen
data_FeB2Mo
_symmetry_space_group_name_H-M   'P 1'
_cell_length_a   7.38525963
_cell_length_b   5.46842480
_cell_length_c   4.80305004
_cell_angle_alpha   160.78569031
_cell_angle_beta   151.43246460
_cell_angle_gamma   25.71008873
_symmetry_Int_Tables_number   1
_chemical_formula_structural   FeB2Mo
_chemical_formula_sum   'Fe2 B4 Mo2'
_cell_volume   27.17738901
_cell_formula_units_Z   2
loop_
 _symmetry_equiv_pos_site_id
 _symmetry_equiv_pos_as_xyz
  1  'x, y, z'
loop_
 _atom_site_type_symbol
 _atom_site_label
 _atom_site_symmetry_multiplicity
 _atom_site_fract_x
 _atom_site_fract_y
 _atom_site_fract_z
 _atom_site_occupancy
  Fe  Fe1  1  0.93351173  0.89071894  0.00000000  1.0
  Fe  Fe2  1  0.00000000  0.16680324  0.00000000  1.0
  B  B1  1  0.46523494  0.81694114  0.56127816  1.0
  B  B2  1  0.79021609  0.00000000  0.44851020  1.0
  B  B3  1  0.58747905  0.15269983  0.11594877  1.0
  B  B4  1  0.76464212  0.78344536  0.00000000  1.0
  Mo  Mo1  1  0.00000000  0.79380298  0.69485557  1.0
  Mo  Mo2  1  0.00000000  0.14672133  0.23419514  1.0
