# generated using pymatgen
data_FeB5
_symmetry_space_group_name_H-M   'P 1'
_cell_length_a   4.93697596
_cell_length_b   4.38820934
_cell_length_c   4.74846554
_cell_angle_alpha   147.85050964
_cell_angle_beta   147.18310547
_cell_angle_gamma   41.92541122
_symmetry_Int_Tables_number   1
_chemical_formula_structural   FeB5
_chemical_formula_sum   'Fe1 B5'
_cell_volume   29.47898495
_cell_formula_units_Z   1
loop_
 _symmetry_equiv_pos_site_id
 _symmetry_equiv_pos_as_xyz
  1  'x, y, z'
loop_
 _atom_site_type_symbol
 _atom_site_label
 _atom_site_symmetry_multiplicity
 _atom_site_fract_x
 _atom_site_fract_y
 _atom_site_fract_z
 _atom_site_occupancy
  Fe  Fe1  1  0.88371861  0.88697338  0.00000000  1.0
  B  B1  1  0.26122689  0.14234155  0.00000000  1.0
  B  B2  1  0.64485377  0.96791995  0.36578739  1.0
  B  B3  1  0.50428671  0.00000000  0.30046278  1.0
  B  B4  1  0.46035945  0.27358615  0.00000000  1.0
  B  B5  1  0.46711701  0.65245795  0.00000000  1.0
