# generated using pymatgen
data_FeB
_symmetry_space_group_name_H-M   'P 1'
_cell_length_a   1.59627557
_cell_length_b   3.40619922
_cell_length_c   3.29837108
_cell_angle_alpha   96.71531677
_cell_angle_beta   90.25788879
_cell_angle_gamma   92.39725494
_symmetry_Int_Tables_number   1
_chemical_formula_structural   FeB
_chemical_formula_sum   'Fe4 B4'
_cell_volume   17.79458841
_cell_formula_units_Z   4
loop_
 _symmetry_equiv_pos_site_id
 _symmetry_equiv_pos_as_xyz
  1  'x, y, z'
loop_
 _atom_site_type_symbol
 _atom_site_label
 _atom_site_symmetry_multiplicity
 _atom_site_fract_x
 _atom_site_fract_y
 _atom_site_fract_z
 _atom_site_occupancy
  Fe  Fe1  1  0.19492435  0.35764921  0.54793543  1.0
  Fe  Fe2  1  0.81598377  0.61591148  0.26004767  1.0
  Fe  Fe3  1  0.53652388  0.80735618  0.80387330  1.0
  Fe  Fe4  1  0.00000000  0.11167625  0.12091687  1.0
  B  B1  1  0.33517969  0.86504149  0.38584566  1.0
  B  B2  1  0.81733531  0.28477705  0.77180898  1.0
  B  B3  1  0.62581927  0.42148381  0.84931445  1.0
  B  B4  1  0.00000000  0.71410775  0.00000000  1.0
