# generated using pymatgen
data_FeC
_symmetry_space_group_name_H-M   'P 1'
_cell_length_a   3.21339154
_cell_length_b   2.19533610
_cell_length_c   1.48412573
_cell_angle_alpha   62.17566299
_cell_angle_beta   60.76371765
_cell_angle_gamma   46.46755600
_symmetry_Int_Tables_number   1
_chemical_formula_structural   FeC
_chemical_formula_sum   'Fe1 C1'
_cell_volume   6.48132616
_cell_formula_units_Z   1
loop_
 _symmetry_equiv_pos_site_id
 _symmetry_equiv_pos_as_xyz
  1  'x, y, z'
loop_
 _atom_site_type_symbol
 _atom_site_label
 _atom_site_symmetry_multiplicity
 _atom_site_fract_x
 _atom_site_fract_y
 _atom_site_fract_z
 _atom_site_occupancy
  Fe  Fe1  1  0.00000000  0.00000000  0.00000000  1.0
  C  C1  1  0.47936589  0.43334743  0.46926180  1.0
