# generated using pymatgen
data_FeCo3
_symmetry_space_group_name_H-M   'P 1'
_cell_length_a   2.95101500
_cell_length_b   3.18589568
_cell_length_c   3.17552614
_cell_angle_alpha   91.33013153
_cell_angle_beta   101.97880554
_cell_angle_gamma   72.02056122
_symmetry_Int_Tables_number   1
_chemical_formula_structural   FeCo3
_chemical_formula_sum   'Fe1 Co3'
_cell_volume   27.75205189
_cell_formula_units_Z   1
loop_
 _symmetry_equiv_pos_site_id
 _symmetry_equiv_pos_as_xyz
  1  'x, y, z'
loop_
 _atom_site_type_symbol
 _atom_site_label
 _atom_site_symmetry_multiplicity
 _atom_site_fract_x
 _atom_site_fract_y
 _atom_site_fract_z
 _atom_site_occupancy
  Fe  Fe1  1  0.00000000  0.00000000  0.00000000  1.0
  Co  Co1  1  0.66711253  0.37866172  0.00000000  1.0
  Co  Co2  1  0.45875573  0.00000000  0.64294606  1.0
  Co  Co3  1  0.00000000  0.34552139  0.50909972  1.0
