# generated using pymatgen
data_FeN3
_symmetry_space_group_name_H-M   'P 1'
_cell_length_a   1.08077168
_cell_length_b   2.24811196
_cell_length_c   2.06234908
_cell_angle_alpha   99.66480255
_cell_angle_beta   91.95535278
_cell_angle_gamma   116.55039978
_symmetry_Int_Tables_number   1
_chemical_formula_structural   FeN3
_chemical_formula_sum   'Fe1 N3'
_cell_volume   4.38483389
_cell_formula_units_Z   1
loop_
 _symmetry_equiv_pos_site_id
 _symmetry_equiv_pos_as_xyz
  1  'x, y, z'
loop_
 _atom_site_type_symbol
 _atom_site_label
 _atom_site_symmetry_multiplicity
 _atom_site_fract_x
 _atom_site_fract_y
 _atom_site_fract_z
 _atom_site_occupancy
  Fe  Fe1  1  0.00000000  0.00000000  0.43813148  1.0
  N  N1  1  0.00000000  0.00000000  0.00000000  1.0
  N  N2  1  0.58295864  0.33138612  0.21994501  1.0
  N  N3  1  0.29473048  0.58826756  0.72307563  1.0
