# generated using pymatgen
data_FeN
_symmetry_space_group_name_H-M   'P 1'
_cell_length_a   1.91862345
_cell_length_b   1.86428368
_cell_length_c   6.42925739
_cell_angle_alpha   99.63587189
_cell_angle_beta   85.97926331
_cell_angle_gamma   124.99696350
_symmetry_Int_Tables_number   1
_chemical_formula_structural   FeN
_chemical_formula_sum   'Fe2 N2'
_cell_volume   18.56304107
_cell_formula_units_Z   2
loop_
 _symmetry_equiv_pos_site_id
 _symmetry_equiv_pos_as_xyz
  1  'x, y, z'
loop_
 _atom_site_type_symbol
 _atom_site_label
 _atom_site_symmetry_multiplicity
 _atom_site_fract_x
 _atom_site_fract_y
 _atom_site_fract_z
 _atom_site_occupancy
  Fe  Fe1  1  0.00000000  0.00000000  0.67137855  1.0
  Fe  Fe2  1  0.00000000  0.00000000  0.00000000  1.0
  N  N1  1  0.77765334  0.45565131  0.17156971  1.0
  N  N2  1  0.49887270  0.55779421  0.79810083  1.0
