# generated using pymatgen
data_FeO2
_symmetry_space_group_name_H-M   'P 1'
_cell_length_a   1.02765262
_cell_length_b   2.77169681
_cell_length_c   2.16688991
_cell_angle_alpha   81.73782349
_cell_angle_beta   94.43020630
_cell_angle_gamma   83.89060211
_symmetry_Int_Tables_number   1
_chemical_formula_structural   FeO2
_chemical_formula_sum   'Fe2 O4'
_cell_volume   6.04637559
_cell_formula_units_Z   2
loop_
 _symmetry_equiv_pos_site_id
 _symmetry_equiv_pos_as_xyz
  1  'x, y, z'
loop_
 _atom_site_type_symbol
 _atom_site_label
 _atom_site_symmetry_multiplicity
 _atom_site_fract_x
 _atom_site_fract_y
 _atom_site_fract_z
 _atom_site_occupancy
  Fe  Fe1  1  0.80688870  0.36417377  0.40659526  1.0
  Fe  Fe2  1  0.00000000  0.00000000  0.00000000  1.0
  O  O1  1  0.00000000  0.50987715  0.71227658  1.0
  O  O2  1  0.52406639  0.91424769  0.31434348  1.0
  O  O3  1  0.00000000  0.36311018  0.31861150  1.0
  O  O4  1  0.70103073  0.66473049  0.57149392  1.0
