# generated using pymatgen
data_FeP2Ru
_symmetry_space_group_name_H-M   'P 1'
_cell_length_a   3.52588536
_cell_length_b   5.18438199
_cell_length_c   9.24303304
_cell_angle_alpha   88.12581711
_cell_angle_beta   89.99999813
_cell_angle_gamma   89.99999946
_symmetry_Int_Tables_number   1
_chemical_formula_structural   FeP2Ru
_chemical_formula_sum   'Fe3 P6 Ru3'
_cell_volume   168.86797677
_cell_formula_units_Z   3
loop_
 _symmetry_equiv_pos_site_id
 _symmetry_equiv_pos_as_xyz
  1  'x, y, z'
loop_
 _atom_site_type_symbol
 _atom_site_label
 _atom_site_symmetry_multiplicity
 _atom_site_fract_x
 _atom_site_fract_y
 _atom_site_fract_z
 _atom_site_occupancy
  Fe  Fe0  1  0.99999999  0.49997552  0.50000919  1.0
  Fe  Fe1  1  0.00000000  0.49997993  0.99998991  1.0
  Fe  Fe2  1  0.00000000  0.99997717  0.49996821  1.0
  P  P3  1  0.50000001  0.27900076  0.07863685  1.0
  P  P4  1  0.49999999  0.74585368  0.56514986  1.0
  P  P5  1  0.49999999  0.72100356  0.92136306  1.0
  P  P6  1  0.50000001  0.25414856  0.43484997  1.0
  P  P7  1  0.99999997  0.23707022  0.74233868  1.0
  P  P8  1  0.00000003  0.76295870  0.25765971  1.0
  Ru  Ru9  1  0.00000006  0.30633277  0.25335170  1.0
  Ru  Ru10  1  0.99999995  0.69371932  0.74664766  1.0
  Ru  Ru11  1  0.00000000  0.99997981  0.00003519  1.0
