# generated using pymatgen
data_FeRe2
_symmetry_space_group_name_H-M   'P 1'
_cell_length_a   1.53534031
_cell_length_b   2.59249353
_cell_length_c   3.20459580
_cell_angle_alpha   90.59386444
_cell_angle_beta   93.05760956
_cell_angle_gamma   122.11340332
_symmetry_Int_Tables_number   1
_chemical_formula_structural   FeRe2
_chemical_formula_sum   'Fe1 Re2'
_cell_volume   10.77713930
_cell_formula_units_Z   1
loop_
 _symmetry_equiv_pos_site_id
 _symmetry_equiv_pos_as_xyz
  1  'x, y, z'
loop_
 _atom_site_type_symbol
 _atom_site_label
 _atom_site_symmetry_multiplicity
 _atom_site_fract_x
 _atom_site_fract_y
 _atom_site_fract_z
 _atom_site_occupancy
  Fe  Fe1  1  0.66863513  0.40534228  0.64229989  1.0
  Re  Re1  1  0.54488325  0.46682408  0.00000000  1.0
  Re  Re2  1  0.00000000  0.00000000  0.00000000  1.0
