# generated using pymatgen
data_FeRu3
_symmetry_space_group_name_H-M   'P 1'
_cell_length_a   3.05322289
_cell_length_b   3.25548220
_cell_length_c   1.47623289
_cell_angle_alpha   86.46317291
_cell_angle_beta   86.82061768
_cell_angle_gamma   87.05168152
_symmetry_Int_Tables_number   1
_chemical_formula_structural   FeRu3
_chemical_formula_sum   'Fe1 Ru3'
_cell_volume   14.60585945
_cell_formula_units_Z   1
loop_
 _symmetry_equiv_pos_site_id
 _symmetry_equiv_pos_as_xyz
  1  'x, y, z'
loop_
 _atom_site_type_symbol
 _atom_site_label
 _atom_site_symmetry_multiplicity
 _atom_site_fract_x
 _atom_site_fract_y
 _atom_site_fract_z
 _atom_site_occupancy
  Fe  Fe1  1  0.00000000  0.00000000  0.00000000  1.0
  Ru  Ru1  1  0.38961875  0.64780092  0.00000000  1.0
  Ru  Ru2  1  0.59205180  0.00000000  0.40449956  1.0
  Ru  Ru3  1  0.00000000  0.51150143  0.47104266  1.0
