# generated using pymatgen
data_FeSi2Mo
_symmetry_space_group_name_H-M   'P 1'
_cell_length_a   4.16052415
_cell_length_b   4.16052423
_cell_length_c   4.16052444
_cell_angle_alpha   60.00000732
_cell_angle_beta   60.00000887
_cell_angle_gamma   60.00000234
_symmetry_Int_Tables_number   1
_chemical_formula_structural   FeSi2Mo
_chemical_formula_sum   'Fe1 Si2 Mo1'
_cell_volume   50.92478960
_cell_formula_units_Z   1
loop_
 _symmetry_equiv_pos_site_id
 _symmetry_equiv_pos_as_xyz
  1  'x, y, z'
loop_
 _atom_site_type_symbol
 _atom_site_label
 _atom_site_symmetry_multiplicity
 _atom_site_fract_x
 _atom_site_fract_y
 _atom_site_fract_z
 _atom_site_occupancy
  Fe  Fe0  1  0.00000000  0.00000000  0.99999999  1.0
  Si  Si1  1  0.25000002  0.25000001  0.25000001  1.0
  Si  Si2  1  0.74999998  0.74999998  0.74999999  1.0
  Mo  Mo3  1  0.50000000  0.50000001  0.50000000  1.0
