# generated using pymatgen
data_FeSiTc2
_symmetry_space_group_name_H-M   'P 1'
_cell_length_a   2.80166149
_cell_length_b   3.73876166
_cell_length_c   3.39822721
_cell_angle_alpha   70.57739258
_cell_angle_beta   57.58678818
_cell_angle_gamma   60.60916138
_symmetry_Int_Tables_number   1
_chemical_formula_structural   FeSiTc2
_chemical_formula_sum   'Fe1 Si1 Tc2'
_cell_volume   26.06522437
_cell_formula_units_Z   1
loop_
 _symmetry_equiv_pos_site_id
 _symmetry_equiv_pos_as_xyz
  1  'x, y, z'
loop_
 _atom_site_type_symbol
 _atom_site_label
 _atom_site_symmetry_multiplicity
 _atom_site_fract_x
 _atom_site_fract_y
 _atom_site_fract_z
 _atom_site_occupancy
  Fe  Fe1  1  0.53372204  0.53071940  0.36160517  1.0
  Si  Si1  1  0.00000000  0.00000000  0.00000000  1.0
  Tc  Tc1  1  0.14695144  0.39049980  0.24030679  1.0
  Tc  Tc2  1  0.84646809  0.75537694  0.79903138  1.0
