# generated using pymatgen
data_GaHOs2
_symmetry_space_group_name_H-M   'P 1'
_cell_length_a   2.88749170
_cell_length_b   5.25267458
_cell_length_c   5.15298986
_cell_angle_alpha   64.77555084
_cell_angle_beta   70.12609100
_cell_angle_gamma   61.38792038
_symmetry_Int_Tables_number   1
_chemical_formula_structural   GaHOs2
_chemical_formula_sum   'Ga1 H1 Os2'
_cell_volume   61.15391308
_cell_formula_units_Z   1
loop_
 _symmetry_equiv_pos_site_id
 _symmetry_equiv_pos_as_xyz
  1  'x, y, z'
loop_
 _atom_site_type_symbol
 _atom_site_label
 _atom_site_symmetry_multiplicity
 _atom_site_fract_x
 _atom_site_fract_y
 _atom_site_fract_z
 _atom_site_occupancy
  Ga  Ga1  1  0.46569461  0.40556735  0.24401215  1.0
  H  H1  1  0.68382889  0.76236701  0.86993659  1.0
  Os  Os1  1  0.00000000  0.88137215  0.00000000  1.0
  Os  Os2  1  0.36588156  0.46862596  0.22194031  1.0
