# generated using pymatgen
data_GaSiRu2
_symmetry_space_group_name_H-M   'P 1'
_cell_length_a   3.35236692
_cell_length_b   2.55613279
_cell_length_c   2.83346009
_cell_angle_alpha   68.17022705
_cell_angle_beta   61.41193390
_cell_angle_gamma   55.23293686
_symmetry_Int_Tables_number   1
_chemical_formula_structural   GaSiRu2
_chemical_formula_sum   'Ga1 Si1 Ru2'
_cell_volume   17.34821736
_cell_formula_units_Z   1
loop_
 _symmetry_equiv_pos_site_id
 _symmetry_equiv_pos_as_xyz
  1  'x, y, z'
loop_
 _atom_site_type_symbol
 _atom_site_label
 _atom_site_symmetry_multiplicity
 _atom_site_fract_x
 _atom_site_fract_y
 _atom_site_fract_z
 _atom_site_occupancy
  Ga  Ga1  1  0.49405763  0.45909178  0.54544222  1.0
  Si  Si1  1  0.00000000  0.00000000  0.00000000  1.0
  Ru  Ru1  1  0.22550830  0.19974044  0.34771919  1.0
  Ru  Ru2  1  0.73537707  0.81579137  0.77110291  1.0
