# generated using pymatgen
data_H2OsRu
_symmetry_space_group_name_H-M   'P 1'
_cell_length_a   3.54328060
_cell_length_b   3.50299001
_cell_length_c   3.49509811
_cell_angle_alpha   67.38790131
_cell_angle_beta   59.19690323
_cell_angle_gamma   67.31575775
_symmetry_Int_Tables_number   1
_chemical_formula_structural   H2OsRu
_chemical_formula_sum   'H2 Os1 Ru1'
_cell_volume   33.40845335
_cell_formula_units_Z   1
loop_
 _symmetry_equiv_pos_site_id
 _symmetry_equiv_pos_as_xyz
  1  'x, y, z'
loop_
 _atom_site_type_symbol
 _atom_site_label
 _atom_site_symmetry_multiplicity
 _atom_site_fract_x
 _atom_site_fract_y
 _atom_site_fract_z
 _atom_site_occupancy
  H  H1  1  0.00000000  0.00000000  0.00000000  1.0
  H  H2  1  0.35993749  0.46022141  0.59076500  1.0
  Os  Os1  1  0.25035959  0.16441825  0.26563841  1.0
  Ru  Ru1  1  0.69760251  0.79299897  0.75040346  1.0
