# generated using pymatgen
data_H3W
_symmetry_space_group_name_H-M   'P 1'
_cell_length_a   2.68334985
_cell_length_b   2.84817028
_cell_length_c   2.07805634
_cell_angle_alpha   129.23632812
_cell_angle_beta   134.75231934
_cell_angle_gamma   82.03775787
_symmetry_Int_Tables_number   1
_chemical_formula_structural   H3W
_chemical_formula_sum   'H3 W1'
_cell_volume   7.25062674
_cell_formula_units_Z   1
loop_
 _symmetry_equiv_pos_site_id
 _symmetry_equiv_pos_as_xyz
  1  'x, y, z'
loop_
 _atom_site_type_symbol
 _atom_site_label
 _atom_site_symmetry_multiplicity
 _atom_site_fract_x
 _atom_site_fract_y
 _atom_site_fract_z
 _atom_site_occupancy
  H  H1  1  0.82560802  0.27407050  0.55638933  1.0
  H  H2  1  0.15668029  0.72859865  0.49509022  1.0
  H  H3  1  0.38693643  0.44279641  0.00000000  1.0
  W  W1  1  0.00000000  0.00000000  0.00000000  1.0
