# generated using pymatgen
data_HfBeN2
_symmetry_space_group_name_H-M   'P 1'
_cell_length_a   7.06042546
_cell_length_b   7.06004433
_cell_length_c   5.59333724
_cell_angle_alpha   77.17284175
_cell_angle_beta   77.17836187
_cell_angle_gamma   129.83411289
_symmetry_Int_Tables_number   1
_chemical_formula_structural   HfBeN2
_chemical_formula_sum   'Hf4 Be4 N8'
_cell_volume   182.40679072
_cell_formula_units_Z   4
loop_
 _symmetry_equiv_pos_site_id
 _symmetry_equiv_pos_as_xyz
  1  'x, y, z'
loop_
 _atom_site_type_symbol
 _atom_site_label
 _atom_site_symmetry_multiplicity
 _atom_site_fract_x
 _atom_site_fract_y
 _atom_site_fract_z
 _atom_site_occupancy
  Hf  Hf0  1  0.56918148  0.43071637  0.25004089  1.0
  Hf  Hf1  1  0.30877048  0.69118613  0.25000397  1.0
  Hf  Hf2  1  0.69122901  0.30881328  0.75000319  1.0
  Hf  Hf3  1  0.43082260  0.56928737  0.74996417  1.0
  Be  Be4  1  0.10319689  0.89693377  0.24992400  1.0
  Be  Be5  1  0.89773513  0.10239426  0.24981327  1.0
  Be  Be6  1  0.10226972  0.89761141  0.75016304  1.0
  Be  Be7  1  0.89681711  0.10308115  0.75003862  1.0
  N  N8  1  0.57933790  0.92780591  0.79023620  1.0
  N  N9  1  0.33307066  0.20126856  0.71219072  1.0
  N  N10  1  0.92781284  0.57938808  0.29018936  1.0
  N  N11  1  0.20128127  0.33303539  0.21215585  1.0
  N  N12  1  0.79870928  0.66695673  0.78785862  1.0
  N  N13  1  0.07218499  0.42060821  0.70982067  1.0
  N  N14  1  0.66692242  0.79872211  0.28782344  1.0
  N  N15  1  0.42065822  0.07219128  0.20977397  1.0
