# generated using pymatgen
data_HfBeN2
_symmetry_space_group_name_H-M   'P 1'
_cell_length_a   3.05946590
_cell_length_b   3.05946586
_cell_length_c   5.03557532
_cell_angle_alpha   89.99897092
_cell_angle_beta   90.00102663
_cell_angle_gamma   120.00049080
_symmetry_Int_Tables_number   1
_chemical_formula_structural   HfBeN2
_chemical_formula_sum   'Hf1 Be1 N2'
_cell_volume   40.81960600
_cell_formula_units_Z   1
loop_
 _symmetry_equiv_pos_site_id
 _symmetry_equiv_pos_as_xyz
  1  'x, y, z'
loop_
 _atom_site_type_symbol
 _atom_site_label
 _atom_site_symmetry_multiplicity
 _atom_site_fract_x
 _atom_site_fract_y
 _atom_site_fract_z
 _atom_site_occupancy
  Hf  Hf0  1  0.99999999  0.00000013  0.00000003  1.0
  Be  Be1  1  0.00000003  0.99999989  0.50000003  1.0
  N  N2  1  0.66666667  0.33333333  0.73725604  1.0
  N  N3  1  0.33333333  0.66666667  0.26274391  1.0
