# generated using pymatgen
data_HfC
_symmetry_space_group_name_H-M   'P 1'
_cell_length_a   3.06905580
_cell_length_b   2.06182218
_cell_length_c   2.62035275
_cell_angle_alpha   90.34966278
_cell_angle_beta   77.93769073
_cell_angle_gamma   65.95770264
_symmetry_Int_Tables_number   1
_chemical_formula_structural   HfC
_chemical_formula_sum   'Hf1 C1'
_cell_volume   14.73086816
_cell_formula_units_Z   1
loop_
 _symmetry_equiv_pos_site_id
 _symmetry_equiv_pos_as_xyz
  1  'x, y, z'
loop_
 _atom_site_type_symbol
 _atom_site_label
 _atom_site_symmetry_multiplicity
 _atom_site_fract_x
 _atom_site_fract_y
 _atom_site_fract_z
 _atom_site_occupancy
  Hf  Hf1  1  0.00000000  0.00000000  0.00000000  1.0
  C  C1  1  0.40368050  0.38785797  0.56889188  1.0
