# generated using pymatgen
data_HfCo3B2
_symmetry_space_group_name_H-M   'P 1'
_cell_length_a   4.21868420
_cell_length_b   4.05043983
_cell_length_c   4.27887487
_cell_angle_alpha   82.77612305
_cell_angle_beta   73.79567719
_cell_angle_gamma   108.66773224
_symmetry_Int_Tables_number   1
_chemical_formula_structural   HfCo3B2
_chemical_formula_sum   'Hf1 Co3 B2'
_cell_volume   64.63153831
_cell_formula_units_Z   1
loop_
 _symmetry_equiv_pos_site_id
 _symmetry_equiv_pos_as_xyz
  1  'x, y, z'
loop_
 _atom_site_type_symbol
 _atom_site_label
 _atom_site_symmetry_multiplicity
 _atom_site_fract_x
 _atom_site_fract_y
 _atom_site_fract_z
 _atom_site_occupancy
  Hf  Hf1  1  0.00000000  0.00000000  0.00000000  1.0
  Co  Co1  1  0.48267701  0.43532133  0.42845216  1.0
  Co  Co2  1  0.47426900  0.00000000  0.42786193  1.0
  Co  Co3  1  0.00000000  0.57840514  0.46425450  1.0
  B  B1  1  0.50757754  0.29564434  0.00000000  1.0
  B  B2  1  0.43902069  0.78190684  0.00000000  1.0
