# generated using pymatgen
data_HfIrN2
_symmetry_space_group_name_H-M   'P 1'
_cell_length_a   3.15753913
_cell_length_b   3.15753909
_cell_length_c   5.38143649
_cell_angle_alpha   89.99994983
_cell_angle_beta   90.00004645
_cell_angle_gamma   119.99981946
_symmetry_Int_Tables_number   1
_chemical_formula_structural   HfIrN2
_chemical_formula_sum   'Hf1 Ir1 N2'
_cell_volume   46.46512588
_cell_formula_units_Z   1
loop_
 _symmetry_equiv_pos_site_id
 _symmetry_equiv_pos_as_xyz
  1  'x, y, z'
loop_
 _atom_site_type_symbol
 _atom_site_label
 _atom_site_symmetry_multiplicity
 _atom_site_fract_x
 _atom_site_fract_y
 _atom_site_fract_z
 _atom_site_occupancy
  Hf  Hf0  1  0.99999997  0.99999998  0.00000316  1.0
  Ir  Ir1  1  0.99999998  0.99999999  0.49999551  1.0
  N  N2  1  0.66666667  0.33333333  0.73010121  1.0
  N  N3  1  0.33333333  0.66666667  0.26990012  1.0
