# generated using pymatgen
data_HfMo2
_symmetry_space_group_name_H-M   'P 1'
_cell_length_a   4.82438374
_cell_length_b   4.05051041
_cell_length_c   5.66111708
_cell_angle_alpha   41.40565872
_cell_angle_beta   38.61944962
_cell_angle_gamma   62.17619324
_symmetry_Int_Tables_number   1
_chemical_formula_structural   HfMo2
_chemical_formula_sum   'Hf2 Mo4'
_cell_volume   43.71871535
_cell_formula_units_Z   2
loop_
 _symmetry_equiv_pos_site_id
 _symmetry_equiv_pos_as_xyz
  1  'x, y, z'
loop_
 _atom_site_type_symbol
 _atom_site_label
 _atom_site_symmetry_multiplicity
 _atom_site_fract_x
 _atom_site_fract_y
 _atom_site_fract_z
 _atom_site_occupancy
  Hf  Hf1  1  0.19654486  0.36720422  0.23983416  1.0
  Hf  Hf2  1  0.76819146  0.82758772  0.90982699  1.0
  Mo  Mo1  1  0.50349009  0.00000000  0.74816585  1.0
  Mo  Mo2  1  0.00000000  0.24700344  0.56618702  1.0
  Mo  Mo3  1  0.25067008  0.49880698  0.52158040  1.0
  Mo  Mo4  1  0.41758931  0.33794922  0.00000000  1.0
