# generated using pymatgen
data_HfN
_symmetry_space_group_name_H-M   'P 1'
_cell_length_a   2.43756342
_cell_length_b   2.77849412
_cell_length_c   3.12236881
_cell_angle_alpha   62.60762024
_cell_angle_beta   63.73976135
_cell_angle_gamma   51.83761597
_symmetry_Int_Tables_number   1
_chemical_formula_structural   HfN
_chemical_formula_sum   'Hf1 N1'
_cell_volume   14.37893732
_cell_formula_units_Z   1
loop_
 _symmetry_equiv_pos_site_id
 _symmetry_equiv_pos_as_xyz
  1  'x, y, z'
loop_
 _atom_site_type_symbol
 _atom_site_label
 _atom_site_symmetry_multiplicity
 _atom_site_fract_x
 _atom_site_fract_y
 _atom_site_fract_z
 _atom_site_occupancy
  Hf  Hf1  1  0.00000000  0.00000000  0.00000000  1.0
  N  N1  1  0.50986010  0.47330329  0.47426763  1.0
