# generated using pymatgen
data_HfP2Ru
_symmetry_space_group_name_H-M   'P 1'
_cell_length_a   4.40424101
_cell_length_b   4.40424106
_cell_length_c   4.40424112
_cell_angle_alpha   59.99999946
_cell_angle_beta   60.00000029
_cell_angle_gamma   60.00000021
_symmetry_Int_Tables_number   1
_chemical_formula_structural   HfP2Ru
_chemical_formula_sum   'Hf1 P2 Ru1'
_cell_volume   60.40852719
_cell_formula_units_Z   1
loop_
 _symmetry_equiv_pos_site_id
 _symmetry_equiv_pos_as_xyz
  1  'x, y, z'
loop_
 _atom_site_type_symbol
 _atom_site_label
 _atom_site_symmetry_multiplicity
 _atom_site_fract_x
 _atom_site_fract_y
 _atom_site_fract_z
 _atom_site_occupancy
  Hf  Hf0  1  0.00000000  0.99999999  0.00000001  1.0
  P  P1  1  0.75000001  0.74999999  0.75000000  1.0
  P  P2  1  0.25000000  0.25000000  0.25000000  1.0
  Ru  Ru3  1  0.49999998  0.50000002  0.49999999  1.0
