# generated using pymatgen
data_HfP2Pt
_symmetry_space_group_name_H-M   'P 1'
_cell_length_a   4.48978429
_cell_length_b   4.48978426
_cell_length_c   4.48978388
_cell_angle_alpha   59.99996383
_cell_angle_beta   59.99996744
_cell_angle_gamma   59.99996270
_symmetry_Int_Tables_number   1
_chemical_formula_structural   HfP2Pt
_chemical_formula_sum   'Hf1 P2 Pt1'
_cell_volume   63.99720978
_cell_formula_units_Z   1
loop_
 _symmetry_equiv_pos_site_id
 _symmetry_equiv_pos_as_xyz
  1  'x, y, z'
loop_
 _atom_site_type_symbol
 _atom_site_label
 _atom_site_symmetry_multiplicity
 _atom_site_fract_x
 _atom_site_fract_y
 _atom_site_fract_z
 _atom_site_occupancy
  Hf  Hf0  1  0.74999952  0.74999954  0.74999952  1.0
  P  P1  1  0.50000066  0.50000066  0.50000068  1.0
  P  P2  1  0.00000000  0.99999998  0.99999997  1.0
  Pt  Pt3  1  0.24999982  0.24999982  0.24999983  1.0
