# generated using pymatgen
data_HfRe2
_symmetry_space_group_name_H-M   'P 1'
_cell_length_a   2.87789464
_cell_length_b   4.37778711
_cell_length_c   5.29872417
_cell_angle_alpha   78.18500519
_cell_angle_beta   93.05982971
_cell_angle_gamma   112.40123749
_symmetry_Int_Tables_number   1
_chemical_formula_structural   HfRe2
_chemical_formula_sum   'Hf4 Re8'
_cell_volume   60.38991716
_cell_formula_units_Z   4
loop_
 _symmetry_equiv_pos_site_id
 _symmetry_equiv_pos_as_xyz
  1  'x, y, z'
loop_
 _atom_site_type_symbol
 _atom_site_label
 _atom_site_symmetry_multiplicity
 _atom_site_fract_x
 _atom_site_fract_y
 _atom_site_fract_z
 _atom_site_occupancy
  Hf  Hf1  1  0.25591013  0.66327131  0.00000000  1.0
  Hf  Hf2  1  0.76621383  0.40023142  0.49538141  1.0
  Hf  Hf3  1  0.61819911  0.45971635  0.89188874  1.0
  Hf  Hf4  1  0.57902730  0.84520102  0.67787743  1.0
  Re  Re1  1  0.00000000  0.00000000  0.00000000  1.0
  Re  Re2  1  0.00000000  0.00000000  0.41907457  1.0
  Re  Re3  1  0.83564013  0.57314074  0.33591861  1.0
  Re  Re4  1  0.25492728  0.79671609  0.78476167  1.0
  Re  Re5  1  0.83650696  0.89030027  0.84359598  1.0
  Re  Re6  1  0.32418630  0.13135286  0.25181797  1.0
  Re  Re7  1  0.76879680  0.17274919  0.20296967  1.0
  Re  Re8  1  0.39876908  0.25763234  0.67714512  1.0
