# generated using pymatgen
data_HfTaRe2
_symmetry_space_group_name_H-M   'P 1'
_cell_length_a   3.41058636
_cell_length_b   4.54644156
_cell_length_c   3.26744151
_cell_angle_alpha   73.08735657
_cell_angle_beta   71.17509460
_cell_angle_gamma   64.98480988
_symmetry_Int_Tables_number   1
_chemical_formula_structural   HfTaRe2
_chemical_formula_sum   'Hf1 Ta1 Re2'
_cell_volume   42.74605100
_cell_formula_units_Z   1
loop_
 _symmetry_equiv_pos_site_id
 _symmetry_equiv_pos_as_xyz
  1  'x, y, z'
loop_
 _atom_site_type_symbol
 _atom_site_label
 _atom_site_symmetry_multiplicity
 _atom_site_fract_x
 _atom_site_fract_y
 _atom_site_fract_z
 _atom_site_occupancy
  Hf  Hf1  1  0.17307305  0.20189899  0.36276072  1.0
  Ta  Ta1  1  0.78416622  0.81580752  0.78695369  1.0
  Re  Re1  1  0.00000000  0.00000000  0.00000000  1.0
  Re  Re2  1  0.44639373  0.60788685  0.44342059  1.0
