# generated using pymatgen
data_HIr3
_symmetry_space_group_name_H-M   'P 1'
_cell_length_a   3.41607833
_cell_length_b   2.30644178
_cell_length_c   2.27063489
_cell_angle_alpha   99.54227448
_cell_angle_beta   111.16070557
_cell_angle_gamma   97.78653717
_symmetry_Int_Tables_number   1
_chemical_formula_structural   HIr3
_chemical_formula_sum   'H1 Ir3'
_cell_volume   16.07777206
_cell_formula_units_Z   1
loop_
 _symmetry_equiv_pos_site_id
 _symmetry_equiv_pos_as_xyz
  1  'x, y, z'
loop_
 _atom_site_type_symbol
 _atom_site_label
 _atom_site_symmetry_multiplicity
 _atom_site_fract_x
 _atom_site_fract_y
 _atom_site_fract_z
 _atom_site_occupancy
  H  H1  1  0.00000000  0.00000000  0.00000000  1.0
  Ir  Ir1  1  0.40221757  0.67659962  0.00000000  1.0
  Ir  Ir2  1  0.49019688  0.00000000  0.40597171  1.0
  Ir  Ir3  1  0.00000000  0.60820609  0.58956796  1.0
