# generated using pymatgen
data_HO2
_symmetry_space_group_name_H-M   'P 1'
_cell_length_a   3.81088376
_cell_length_b   2.29818416
_cell_length_c   4.53798532
_cell_angle_alpha   59.38431168
_cell_angle_beta   60.30858612
_cell_angle_gamma   70.97717285
_symmetry_Int_Tables_number   1
_chemical_formula_structural   HO2
_chemical_formula_sum   'H1 O2'
_cell_volume   29.56849532
_cell_formula_units_Z   1
loop_
 _symmetry_equiv_pos_site_id
 _symmetry_equiv_pos_as_xyz
  1  'x, y, z'
loop_
 _atom_site_type_symbol
 _atom_site_label
 _atom_site_symmetry_multiplicity
 _atom_site_fract_x
 _atom_site_fract_y
 _atom_site_fract_z
 _atom_site_occupancy
  H  H1  1  0.00000000  0.00000000  0.00000000  1.0
  O  O1  1  0.78876853  0.64765304  0.59752280  1.0
  O  O2  1  0.00000000  0.00000000  0.19843274  1.0
