# generated using pymatgen
data_HRu3
_symmetry_space_group_name_H-M   'P 1'
_cell_length_a   2.79276729
_cell_length_b   3.21713948
_cell_length_c   2.16034770
_cell_angle_alpha   89.91543579
_cell_angle_beta   91.14652252
_cell_angle_gamma   80.67461395
_symmetry_Int_Tables_number   1
_chemical_formula_structural   HRu3
_chemical_formula_sum   'H1 Ru3'
_cell_volume   19.14954582
_cell_formula_units_Z   1
loop_
 _symmetry_equiv_pos_site_id
 _symmetry_equiv_pos_as_xyz
  1  'x, y, z'
loop_
 _atom_site_type_symbol
 _atom_site_label
 _atom_site_symmetry_multiplicity
 _atom_site_fract_x
 _atom_site_fract_y
 _atom_site_fract_z
 _atom_site_occupancy
  H  H1  1  0.00000000  0.00000000  0.00000000  1.0
  Ru  Ru1  1  0.00000000  0.38737813  0.63675225  1.0
  Ru  Ru2  1  0.47454643  0.00000000  0.28684294  1.0
  Ru  Ru3  1  0.54433084  0.57924789  0.00000000  1.0
