# generated using pymatgen
data_HW
_symmetry_space_group_name_H-M   'P 1'
_cell_length_a   2.56920433
_cell_length_b   2.80188441
_cell_length_c   5.37645817
_cell_angle_alpha   85.50541687
_cell_angle_beta   95.13908386
_cell_angle_gamma   124.28542328
_symmetry_Int_Tables_number   1
_chemical_formula_structural   HW
_chemical_formula_sum   'H2 W2'
_cell_volume   31.83120265
_cell_formula_units_Z   2
loop_
 _symmetry_equiv_pos_site_id
 _symmetry_equiv_pos_as_xyz
  1  'x, y, z'
loop_
 _atom_site_type_symbol
 _atom_site_label
 _atom_site_symmetry_multiplicity
 _atom_site_fract_x
 _atom_site_fract_y
 _atom_site_fract_z
 _atom_site_occupancy
  H  H1  1  0.00000000  0.00000000  0.00000000  1.0
  H  H2  1  0.00000000  0.00000000  0.29041708  1.0
  W  W1  1  0.82879329  0.24046972  0.20809636  1.0
  W  W2  1  0.44452655  0.42128158  0.59681118  1.0
