# generated using pymatgen
data_Ir3Rh
_symmetry_space_group_name_H-M   'P 1'
_cell_length_a   4.81953144
_cell_length_b   3.36272335
_cell_length_c   2.59330082
_cell_angle_alpha   140.68351746
_cell_angle_beta   139.91764832
_cell_angle_gamma   63.69795227
_symmetry_Int_Tables_number   1
_chemical_formula_structural   Ir3Rh
_chemical_formula_sum   'Ir3 Rh1'
_cell_volume   15.96473780
_cell_formula_units_Z   1
loop_
 _symmetry_equiv_pos_site_id
 _symmetry_equiv_pos_as_xyz
  1  'x, y, z'
loop_
 _atom_site_type_symbol
 _atom_site_label
 _atom_site_symmetry_multiplicity
 _atom_site_fract_x
 _atom_site_fract_y
 _atom_site_fract_z
 _atom_site_occupancy
  Ir  Ir1  1  0.75468129  0.25269797  0.42570704  1.0
  Ir  Ir2  1  0.19712600  0.80540073  0.49543971  1.0
  Ir  Ir3  1  0.47007459  0.62916458  0.00000000  1.0
  Rh  Rh1  1  0.00000000  0.00000000  0.00000000  1.0
