# generated using pymatgen
data_Ir3W
_symmetry_space_group_name_H-M   'P 1'
_cell_length_a   3.48652077
_cell_length_b   6.37858963
_cell_length_c   2.62673736
_cell_angle_alpha   85.69707489
_cell_angle_beta   94.24803925
_cell_angle_gamma   93.18586731
_symmetry_Int_Tables_number   1
_chemical_formula_structural   Ir3W
_chemical_formula_sum   'Ir6 W2'
_cell_volume   58.01801884
_cell_formula_units_Z   2
loop_
 _symmetry_equiv_pos_site_id
 _symmetry_equiv_pos_as_xyz
  1  'x, y, z'
loop_
 _atom_site_type_symbol
 _atom_site_label
 _atom_site_symmetry_multiplicity
 _atom_site_fract_x
 _atom_site_fract_y
 _atom_site_fract_z
 _atom_site_occupancy
  Ir  Ir1  1  0.70508295  0.92510217  0.70221853  1.0
  Ir  Ir2  1  0.20215520  0.14164308  0.36008236  1.0
  Ir  Ir3  1  0.86738211  0.10267910  0.34053689  1.0
  Ir  Ir4  1  0.39940456  0.22002199  0.54812133  1.0
  Ir  Ir5  1  0.29606926  0.95764589  0.78554380  1.0
  Ir  Ir6  1  0.86764550  0.54765844  0.34327167  1.0
  W  W1  1  0.79847395  0.36999825  0.87523532  1.0
  W  W2  1  0.00000000  0.48641178  0.35958034  1.0
