# generated using pymatgen
data_IrO2
_symmetry_space_group_name_H-M   'P 1'
_cell_length_a   2.17646599
_cell_length_b   1.99632061
_cell_length_c   6.17945099
_cell_angle_alpha   69.80755615
_cell_angle_beta   87.71669769
_cell_angle_gamma   70.76639557
_symmetry_Int_Tables_number   1
_chemical_formula_structural   IrO2
_chemical_formula_sum   'Ir2 O4'
_cell_volume   23.70971994
_cell_formula_units_Z   2
loop_
 _symmetry_equiv_pos_site_id
 _symmetry_equiv_pos_as_xyz
  1  'x, y, z'
loop_
 _atom_site_type_symbol
 _atom_site_label
 _atom_site_symmetry_multiplicity
 _atom_site_fract_x
 _atom_site_fract_y
 _atom_site_fract_z
 _atom_site_occupancy
  Ir  Ir1  1  0.31161678  0.33681601  0.67985153  1.0
  Ir  Ir2  1  0.00000000  0.00000000  0.00000000  1.0
  O  O1  1  0.00000000  0.72916591  0.66320568  1.0
  O  O2  1  0.58807313  0.57909083  0.00000000  1.0
  O  O3  1  0.00000000  0.31120461  0.23928711  1.0
  O  O4  1  0.65381336  0.00000000  0.83214277  1.0
