# generated using pymatgen
data_IrRh
_symmetry_space_group_name_H-M   'P 1'
_cell_length_a   2.99577093
_cell_length_b   2.66275239
_cell_length_c   3.16043711
_cell_angle_alpha   127.01747131
_cell_angle_beta   120.70751953
_cell_angle_gamma   84.58939362
_symmetry_Int_Tables_number   1
_chemical_formula_structural   IrRh
_chemical_formula_sum   'Ir2 Rh2'
_cell_volume   16.45175124
_cell_formula_units_Z   2
loop_
 _symmetry_equiv_pos_site_id
 _symmetry_equiv_pos_as_xyz
  1  'x, y, z'
loop_
 _atom_site_type_symbol
 _atom_site_label
 _atom_site_symmetry_multiplicity
 _atom_site_fract_x
 _atom_site_fract_y
 _atom_site_fract_z
 _atom_site_occupancy
  Ir  Ir1  1  0.78070462  0.32246804  0.34368855  1.0
  Ir  Ir2  1  0.18744338  0.67571878  0.55100548  1.0
  Rh  Rh1  1  0.53379685  0.38628209  0.00000000  1.0
  Rh  Rh2  1  0.00000000  0.00000000  0.00000000  1.0
