# generated using pymatgen
data_K2Bi3
_symmetry_space_group_name_H-M   'P 1'
_cell_length_a   5.72305489
_cell_length_b   6.68611050
_cell_length_c   4.57155657
_cell_angle_alpha   79.37948608
_cell_angle_beta   80.27303314
_cell_angle_gamma   56.44042206
_symmetry_Int_Tables_number   1
_chemical_formula_structural   K2Bi3
_chemical_formula_sum   'K2 Bi3'
_cell_volume   142.79325572
_cell_formula_units_Z   1
loop_
 _symmetry_equiv_pos_site_id
 _symmetry_equiv_pos_as_xyz
  1  'x, y, z'
loop_
 _atom_site_type_symbol
 _atom_site_label
 _atom_site_symmetry_multiplicity
 _atom_site_fract_x
 _atom_site_fract_y
 _atom_site_fract_z
 _atom_site_occupancy
  K  K1  1  0.71835810  0.55446124  0.44909585  1.0
  K  K2  1  0.16834867  0.47899234  0.44656974  1.0
  Bi  Bi1  1  0.49154231  0.00000000  0.00000000  1.0
  Bi  Bi2  1  0.00000000  0.34577858  0.00000000  1.0
  Bi  Bi3  1  0.00000000  0.00000000  0.00000000  1.0
