# generated using pymatgen
data_KBi2
_symmetry_space_group_name_H-M   'P 1'
_cell_length_a   7.64549398
_cell_length_b   5.31927824
_cell_length_c   8.50483894
_cell_angle_alpha   73.69226074
_cell_angle_beta   73.51062775
_cell_angle_gamma   62.12940979
_symmetry_Int_Tables_number   1
_chemical_formula_structural   KBi2
_chemical_formula_sum   'K2 Bi4'
_cell_volume   288.67378436
_cell_formula_units_Z   2
loop_
 _symmetry_equiv_pos_site_id
 _symmetry_equiv_pos_as_xyz
  1  'x, y, z'
loop_
 _atom_site_type_symbol
 _atom_site_label
 _atom_site_symmetry_multiplicity
 _atom_site_fract_x
 _atom_site_fract_y
 _atom_site_fract_z
 _atom_site_occupancy
  K  K1  1  0.74551833  0.49376014  0.76403570  1.0
  K  K2  1  0.22488543  0.53329533  0.40588525  1.0
  Bi  Bi1  1  0.53305358  0.00000000  0.00000000  1.0
  Bi  Bi2  1  0.00000000  0.42015973  0.00000000  1.0
  Bi  Bi3  1  0.00000000  0.00000000  0.48834148  1.0
  Bi  Bi4  1  0.00000000  0.00000000  0.00000000  1.0
