# generated using pymatgen
data_KCo3
_symmetry_space_group_name_H-M   'P 1'
_cell_length_a   2.29472184
_cell_length_b   1.99415922
_cell_length_c   1.92458236
_cell_angle_alpha   87.17155457
_cell_angle_beta   97.85014343
_cell_angle_gamma   76.62220001
_symmetry_Int_Tables_number   1
_chemical_formula_structural   KCo3
_chemical_formula_sum   'K1 Co3'
_cell_volume   8.45771040
_cell_formula_units_Z   1
loop_
 _symmetry_equiv_pos_site_id
 _symmetry_equiv_pos_as_xyz
  1  'x, y, z'
loop_
 _atom_site_type_symbol
 _atom_site_label
 _atom_site_symmetry_multiplicity
 _atom_site_fract_x
 _atom_site_fract_y
 _atom_site_fract_z
 _atom_site_occupancy
  K  K1  1  0.00000000  0.00000000  0.00000000  1.0
  Co  Co1  1  0.46832004  0.62870169  0.00000000  1.0
  Co  Co2  1  0.63310921  0.00000000  0.48487318  1.0
  Co  Co3  1  0.00000000  0.42498860  0.13010952  1.0
