# generated using pymatgen
data_LaCo5
_symmetry_space_group_name_H-M   'P 1'
_cell_length_a   2.47809005
_cell_length_b   7.61015749
_cell_length_c   5.19922686
_cell_angle_alpha   71.98719025
_cell_angle_beta   96.83193970
_cell_angle_gamma   100.37776947
_symmetry_Int_Tables_number   1
_chemical_formula_structural   LaCo5
_chemical_formula_sum   'La1 Co5'
_cell_volume   91.50944215
_cell_formula_units_Z   1
loop_
 _symmetry_equiv_pos_site_id
 _symmetry_equiv_pos_as_xyz
  1  'x, y, z'
loop_
 _atom_site_type_symbol
 _atom_site_label
 _atom_site_symmetry_multiplicity
 _atom_site_fract_x
 _atom_site_fract_y
 _atom_site_fract_z
 _atom_site_occupancy
  La  La1  1  0.00000000  0.00000000  0.00000000  1.0
  Co  Co1  1  0.00000000  0.30779612  0.46266595  1.0
  Co  Co2  1  0.00000000  0.76351738  0.76386756  1.0
  Co  Co3  1  0.62551165  0.00000000  0.35322976  1.0
  Co  Co4  1  0.52250946  0.61501729  0.47202617  1.0
  Co  Co5  1  0.58225316  0.21650913  0.00000000  1.0
