# generated using pymatgen
data_LaOsN3
_symmetry_space_group_name_H-M   'P 1'
_cell_length_a   2.66947484
_cell_length_b   1.69287050
_cell_length_c   3.11190724
_cell_angle_alpha   88.23046112
_cell_angle_beta   88.19873047
_cell_angle_gamma   81.99828339
_symmetry_Int_Tables_number   1
_chemical_formula_structural   LaOsN3
_chemical_formula_sum   'La1 Os1 N3'
_cell_volume   13.91415207
_cell_formula_units_Z   1
loop_
 _symmetry_equiv_pos_site_id
 _symmetry_equiv_pos_as_xyz
  1  'x, y, z'
loop_
 _atom_site_type_symbol
 _atom_site_label
 _atom_site_symmetry_multiplicity
 _atom_site_fract_x
 _atom_site_fract_y
 _atom_site_fract_z
 _atom_site_occupancy
  La  La1  1  0.58538592  0.34111634  0.24719042  1.0
  Os  Os1  1  0.00000000  0.00000000  0.00000000  1.0
  N  N1  1  0.34927467  0.00000000  0.00000000  1.0
  N  N2  1  0.00000000  0.23387328  0.00000000  1.0
  N  N3  1  0.00000000  0.00000000  0.48588285  1.0
