# generated using pymatgen
data_LaRu3
_symmetry_space_group_name_H-M   'P 1'
_cell_length_a   3.86884975
_cell_length_b   2.28709555
_cell_length_c   3.52032232
_cell_angle_alpha   96.75599670
_cell_angle_beta   88.32877350
_cell_angle_gamma   97.92630005
_symmetry_Int_Tables_number   1
_chemical_formula_structural   LaRu3
_chemical_formula_sum   'La1 Ru3'
_cell_volume   30.63484800
_cell_formula_units_Z   1
loop_
 _symmetry_equiv_pos_site_id
 _symmetry_equiv_pos_as_xyz
  1  'x, y, z'
loop_
 _atom_site_type_symbol
 _atom_site_label
 _atom_site_symmetry_multiplicity
 _atom_site_fract_x
 _atom_site_fract_y
 _atom_site_fract_z
 _atom_site_occupancy
  La  La1  1  0.00000000  0.00000000  0.00000000  1.0
  Ru  Ru1  1  0.46636504  0.45143721  0.00000000  1.0
  Ru  Ru2  1  0.58442551  0.00000000  0.46463588  1.0
  Ru  Ru3  1  0.00000000  0.51465654  0.46986988  1.0
