# generated using pymatgen
data_LiCa5Ge2
_symmetry_space_group_name_H-M   'P 1'
_cell_length_a   6.94104385
_cell_length_b   6.44801044
_cell_length_c   6.19730949
_cell_angle_alpha   54.85993958
_cell_angle_beta   64.16829681
_cell_angle_gamma   59.56282425
_symmetry_Int_Tables_number   1
_chemical_formula_structural   LiCa5Ge2
_chemical_formula_sum   'Li1 Ca5 Ge2'
_cell_volume   191.42639347
_cell_formula_units_Z   1
loop_
 _symmetry_equiv_pos_site_id
 _symmetry_equiv_pos_as_xyz
  1  'x, y, z'
loop_
 _atom_site_type_symbol
 _atom_site_label
 _atom_site_symmetry_multiplicity
 _atom_site_fract_x
 _atom_site_fract_y
 _atom_site_fract_z
 _atom_site_occupancy
  Li  Li1  1  0.73555756  0.70920402  0.52978826  1.0
  Ca  Ca1  1  0.14754939  0.00000000  0.00000000  1.0
  Ca  Ca2  1  0.67901957  0.72988456  0.00000000  1.0
  Ca  Ca3  1  0.00000000  0.69032443  0.42109689  1.0
  Ca  Ca4  1  0.00000000  0.00000000  0.53812152  1.0
  Ca  Ca5  1  0.00000000  0.52710801  0.00000000  1.0
  Ge  Ge1  1  0.23171386  0.00000000  0.00000000  1.0
  Ge  Ge2  1  0.00000000  0.00000000  0.00000000  1.0
