# generated using pymatgen
data_LiCoP
_symmetry_space_group_name_H-M   'P 1'
_cell_length_a   2.12016869
_cell_length_b   3.69818878
_cell_length_c   4.94359970
_cell_angle_alpha   80.62662506
_cell_angle_beta   97.01485443
_cell_angle_gamma   113.59497070
_symmetry_Int_Tables_number   1
_chemical_formula_structural   LiCoP
_chemical_formula_sum   'Li4 Co4 P4'
_cell_volume   34.97730189
_cell_formula_units_Z   4
loop_
 _symmetry_equiv_pos_site_id
 _symmetry_equiv_pos_as_xyz
  1  'x, y, z'
loop_
 _atom_site_type_symbol
 _atom_site_label
 _atom_site_symmetry_multiplicity
 _atom_site_fract_x
 _atom_site_fract_y
 _atom_site_fract_z
 _atom_site_occupancy
  Li  Li1  1  0.11452478  0.38993210  0.33360183  1.0
  Li  Li2  1  0.45040971  0.00000000  0.12743858  1.0
  Li  Li3  1  0.68338645  0.95345461  0.87556088  1.0
  Li  Li4  1  0.76364207  0.41000381  0.40092117  1.0
  Co  Co1  1  0.63910776  0.43526128  0.00000000  1.0
  Co  Co2  1  0.24807000  0.00000000  0.65420187  1.0
  Co  Co3  1  0.77901280  0.86931026  0.65159488  1.0
  Co  Co4  1  0.15694502  0.64024258  0.87286788  1.0
  P  P1  1  0.14272058  0.70708859  0.84635627  1.0
  P  P2  1  0.62757868  0.10762896  0.79974824  1.0
  P  P3  1  0.79095840  0.15369135  0.12915531  1.0
  P  P4  1  0.64406669  0.60120255  0.00000000  1.0
