# generated using pymatgen
data_LiInNi4
_symmetry_space_group_name_H-M   'P 1'
_cell_length_a   2.64353752
_cell_length_b   3.53922892
_cell_length_c   2.27647352
_cell_angle_alpha   50.17564774
_cell_angle_beta   60.32100296
_cell_angle_gamma   82.35532379
_symmetry_Int_Tables_number   1
_chemical_formula_structural   LiInNi4
_chemical_formula_sum   'Li1 In1 Ni4'
_cell_volume   13.66036321
_cell_formula_units_Z   1
loop_
 _symmetry_equiv_pos_site_id
 _symmetry_equiv_pos_as_xyz
  1  'x, y, z'
loop_
 _atom_site_type_symbol
 _atom_site_label
 _atom_site_symmetry_multiplicity
 _atom_site_fract_x
 _atom_site_fract_y
 _atom_site_fract_z
 _atom_site_occupancy
  Li  Li1  1  0.00000000  0.00000000  0.00000000  1.0
  In  In1  1  0.13603964  0.00000000  0.29356563  1.0
  Ni  Ni1  1  0.78212214  0.79128593  0.20176461  1.0
  Ni  Ni2  1  0.51046830  0.59924418  0.79913974  1.0
  Ni  Ni3  1  0.29806879  0.60998374  0.72641963  1.0
  Ni  Ni4  1  0.57833678  0.14516389  0.45988309  1.0
