# generated using pymatgen
data_LiMoN2
_symmetry_space_group_name_H-M   'P 1'
_cell_length_a   2.52529478
_cell_length_b   2.57462740
_cell_length_c   5.59319210
_cell_angle_alpha   80.49408722
_cell_angle_beta   83.36233521
_cell_angle_gamma   126.38893890
_symmetry_Int_Tables_number   1
_chemical_formula_structural   LiMoN2
_chemical_formula_sum   'Li2 Mo2 N4'
_cell_volume   27.80816332
_cell_formula_units_Z   2
loop_
 _symmetry_equiv_pos_site_id
 _symmetry_equiv_pos_as_xyz
  1  'x, y, z'
loop_
 _atom_site_type_symbol
 _atom_site_label
 _atom_site_symmetry_multiplicity
 _atom_site_fract_x
 _atom_site_fract_y
 _atom_site_fract_z
 _atom_site_occupancy
  Li  Li1  1  0.00000000  0.00000000  0.00000000  1.0
  Li  Li2  1  0.00000000  0.00000000  0.59126675  1.0
  Mo  Mo1  1  0.80326569  0.27075732  0.18041679  1.0
  Mo  Mo2  1  0.43493691  0.75933796  0.78450763  1.0
  N  N1  1  0.20269305  0.69851995  0.14757824  1.0
  N  N2  1  0.50303549  0.86916876  0.33174264  1.0
  N  N3  1  0.57786804  0.30018467  0.78206199  1.0
  N  N4  1  0.75052023  0.35691082  0.73501337  1.0
