# generated using pymatgen
data_LiOs
_symmetry_space_group_name_H-M   'P 1'
_cell_length_a   1.86524761
_cell_length_b   2.16869330
_cell_length_c   2.49112058
_cell_angle_alpha   87.63880920
_cell_angle_beta   85.25556946
_cell_angle_gamma   102.73607635
_symmetry_Int_Tables_number   1
_chemical_formula_structural   LiOs
_chemical_formula_sum   'Li1 Os1'
_cell_volume   9.77701710
_cell_formula_units_Z   1
loop_
 _symmetry_equiv_pos_site_id
 _symmetry_equiv_pos_as_xyz
  1  'x, y, z'
loop_
 _atom_site_type_symbol
 _atom_site_label
 _atom_site_symmetry_multiplicity
 _atom_site_fract_x
 _atom_site_fract_y
 _atom_site_fract_z
 _atom_site_occupancy
  Li  Li1  1  0.00000000  0.00000000  0.00000000  1.0
  Os  Os1  1  0.40040329  0.30430675  0.33462748  1.0
