# generated using pymatgen
data_LiPt3
_symmetry_space_group_name_H-M   'P 1'
_cell_length_a   3.28152490
_cell_length_b   5.76907587
_cell_length_c   4.52132607
_cell_angle_alpha   90.91853333
_cell_angle_beta   110.29819489
_cell_angle_gamma   77.17308044
_symmetry_Int_Tables_number   1
_chemical_formula_structural   LiPt3
_chemical_formula_sum   'Li1 Pt3'
_cell_volume   78.10181923
_cell_formula_units_Z   1
loop_
 _symmetry_equiv_pos_site_id
 _symmetry_equiv_pos_as_xyz
  1  'x, y, z'
loop_
 _atom_site_type_symbol
 _atom_site_label
 _atom_site_symmetry_multiplicity
 _atom_site_fract_x
 _atom_site_fract_y
 _atom_site_fract_z
 _atom_site_occupancy
  Li  Li1  1  0.00000000  0.00000000  0.00000000  1.0
  Pt  Pt1  1  0.39839187  0.55751657  0.00000000  1.0
  Pt  Pt2  1  0.47375408  0.00000000  0.61294562  1.0
  Pt  Pt3  1  0.00000000  0.21333078  0.29586339  1.0
