# generated using pymatgen
data_LuBO4
_symmetry_space_group_name_H-M   'P 1'
_cell_length_a   4.43317509
_cell_length_b   4.38101912
_cell_length_c   5.12169456
_cell_angle_alpha   112.90849304
_cell_angle_beta   112.38131714
_cell_angle_gamma   116.03381348
_symmetry_Int_Tables_number   1
_chemical_formula_structural   LuBO4
_chemical_formula_sum   'Lu2 B2 O8'
_cell_volume   61.37957272
_cell_formula_units_Z   2
loop_
 _symmetry_equiv_pos_site_id
 _symmetry_equiv_pos_as_xyz
  1  'x, y, z'
loop_
 _atom_site_type_symbol
 _atom_site_label
 _atom_site_symmetry_multiplicity
 _atom_site_fract_x
 _atom_site_fract_y
 _atom_site_fract_z
 _atom_site_occupancy
  Lu  Lu1  1  0.12502736  0.94331527  0.17880976  1.0
  Lu  Lu2  1  0.92737663  0.22842801  0.60811895  1.0
  B  B1  1  0.58489662  0.49118045  0.17242718  1.0
  B  B2  1  0.50864744  0.68204874  0.71982545  1.0
  O  O1  1  0.74485701  0.20906848  0.00000000  1.0
  O  O2  1  0.88746667  0.80219519  0.96658194  1.0
  O  O3  1  0.61962157  0.18364054  0.00000000  1.0
  O  O4  1  0.13865638  0.74280035  0.91104746  1.0
  O  O5  1  0.32253915  0.36900014  0.53465760  1.0
  O  O6  1  0.72548586  0.13399641  0.50923187  1.0
  O  O7  1  0.50446111  0.71383703  0.37731349  1.0
  O  O8  1  0.20383441  0.73988760  0.27182335  1.0
