# generated using pymatgen
data_LuFe2W
_symmetry_space_group_name_H-M   'P 1'
_cell_length_a   1.80586672
_cell_length_b   4.56419086
_cell_length_c   1.83897936
_cell_angle_alpha   54.23160172
_cell_angle_beta   73.23757935
_cell_angle_gamma   61.16428375
_symmetry_Int_Tables_number   1
_chemical_formula_structural   LuFe2W
_chemical_formula_sum   'Lu1 Fe2 W1'
_cell_volume   10.77315934
_cell_formula_units_Z   1
loop_
 _symmetry_equiv_pos_site_id
 _symmetry_equiv_pos_as_xyz
  1  'x, y, z'
loop_
 _atom_site_type_symbol
 _atom_site_label
 _atom_site_symmetry_multiplicity
 _atom_site_fract_x
 _atom_site_fract_y
 _atom_site_fract_z
 _atom_site_occupancy
  Lu  Lu1  1  0.39037490  0.54503423  0.31391990  1.0
  Fe  Fe1  1  0.18159959  0.30701923  0.23281485  1.0
  Fe  Fe2  1  0.75931060  0.78268427  0.70771110  1.0
  W  W1  1  0.00000000  0.00000000  0.00000000  1.0
