# generated using pymatgen
data_LuIr2
_symmetry_space_group_name_H-M   'P 1'
_cell_length_a   3.84208608
_cell_length_b   2.61658740
_cell_length_c   4.16500711
_cell_angle_alpha   64.86043549
_cell_angle_beta   49.26381683
_cell_angle_gamma   72.71669006
_symmetry_Int_Tables_number   1
_chemical_formula_structural   LuIr2
_chemical_formula_sum   'Lu2 Ir4'
_cell_volume   28.70957934
_cell_formula_units_Z   2
loop_
 _symmetry_equiv_pos_site_id
 _symmetry_equiv_pos_as_xyz
  1  'x, y, z'
loop_
 _atom_site_type_symbol
 _atom_site_label
 _atom_site_symmetry_multiplicity
 _atom_site_fract_x
 _atom_site_fract_y
 _atom_site_fract_z
 _atom_site_occupancy
  Lu  Lu1  1  0.26028523  0.23073104  0.15762454  1.0
  Lu  Lu2  1  0.84144056  0.86835319  0.87183428  1.0
  Ir  Ir1  1  0.00000000  0.47788826  0.70646334  1.0
  Ir  Ir2  1  0.69693017  0.00000000  0.60120457  1.0
  Ir  Ir3  1  0.67052352  0.46239081  0.00000000  1.0
  Ir  Ir4  1  0.27221030  0.36037034  0.47575939  1.0
