# generated using pymatgen
data_MgBiAu2
_symmetry_space_group_name_H-M   'P 1'
_cell_length_a   3.83418345
_cell_length_b   3.75125480
_cell_length_c   3.33958554
_cell_angle_alpha   57.68748474
_cell_angle_beta   59.28090668
_cell_angle_gamma   61.58576202
_symmetry_Int_Tables_number   1
_chemical_formula_structural   MgBiAu2
_chemical_formula_sum   'Mg1 Bi1 Au2'
_cell_volume   33.51199316
_cell_formula_units_Z   1
loop_
 _symmetry_equiv_pos_site_id
 _symmetry_equiv_pos_as_xyz
  1  'x, y, z'
loop_
 _atom_site_type_symbol
 _atom_site_label
 _atom_site_symmetry_multiplicity
 _atom_site_fract_x
 _atom_site_fract_y
 _atom_site_fract_z
 _atom_site_occupancy
  Mg  Mg1  1  0.00000000  0.00000000  0.00000000  1.0
  Bi  Bi1  1  0.44523123  0.61187392  0.41805747  1.0
  Au  Au1  1  0.75084221  0.74689984  0.79546016  1.0
  Au  Au2  1  0.41372752  0.27096710  0.16594672  1.0
