# generated using pymatgen
data_MgMoN2
_symmetry_space_group_name_H-M   'P 1'
_cell_length_a   2.63785982
_cell_length_b   2.25735092
_cell_length_c   14.76209545
_cell_angle_alpha   99.76019287
_cell_angle_beta   105.61672211
_cell_angle_gamma   120.16440582
_symmetry_Int_Tables_number   1
_chemical_formula_structural   MgMoN2
_chemical_formula_sum   'Mg2 Mo2 N4'
_cell_volume   68.11357816
_cell_formula_units_Z   2
loop_
 _symmetry_equiv_pos_site_id
 _symmetry_equiv_pos_as_xyz
  1  'x, y, z'
loop_
 _atom_site_type_symbol
 _atom_site_label
 _atom_site_symmetry_multiplicity
 _atom_site_fract_x
 _atom_site_fract_y
 _atom_site_fract_z
 _atom_site_occupancy
  Mg  Mg1  1  0.00000000  0.00000000  0.00000000  1.0
  Mg  Mg2  1  0.00000000  0.00000000  0.52199155  1.0
  Mo  Mo1  1  0.67095995  0.45095241  0.32737216  1.0
  Mo  Mo2  1  0.47947353  0.57605988  0.63581389  1.0
  N  N1  1  0.18806675  0.76186740  0.00000000  1.0
  N  N2  1  0.54867214  0.61184549  0.34539598  1.0
  N  N3  1  0.66331345  0.12679282  0.73036957  1.0
  N  N4  1  0.59904200  0.31638998  0.88175690  1.0
