# generated using pymatgen
data_MgTaN2
_symmetry_space_group_name_H-M   'P 1'
_cell_length_a   2.24010324
_cell_length_b   1.75785315
_cell_length_c   1.87525904
_cell_angle_alpha   143.78851318
_cell_angle_beta   143.33609009
_cell_angle_gamma   56.95935440
_symmetry_Int_Tables_number   1
_chemical_formula_structural   MgTaN2
_chemical_formula_sum   'Mg2 Ta2 N4'
_cell_volume   2.49367717
_cell_formula_units_Z   2
loop_
 _symmetry_equiv_pos_site_id
 _symmetry_equiv_pos_as_xyz
  1  'x, y, z'
loop_
 _atom_site_type_symbol
 _atom_site_label
 _atom_site_symmetry_multiplicity
 _atom_site_fract_x
 _atom_site_fract_y
 _atom_site_fract_z
 _atom_site_occupancy
  Mg  Mg1  1  0.44049102  0.40180582  0.00000000  1.0
  Mg  Mg2  1  0.31834650  0.78496891  0.73723483  1.0
  Ta  Ta1  1  0.00000000  0.00000000  0.00000000  1.0
  Ta  Ta2  1  0.83484948  0.42570928  0.83043081  1.0
  N  N1  1  0.62592292  0.78444093  0.00000000  1.0
  N  N2  1  0.23687354  0.29729611  0.00000000  1.0
  N  N3  1  0.00000000  0.80354995  0.55135548  1.0
  N  N4  1  0.37351018  0.97709978  0.19298235  1.0
