# generated using pymatgen
data_Mn(BW)2
_symmetry_space_group_name_H-M   'P 1'
_cell_length_a   1.61143863
_cell_length_b   4.73110104
_cell_length_c   3.28374958
_cell_angle_alpha   84.93241882
_cell_angle_beta   90.59755707
_cell_angle_gamma   88.51515961
_symmetry_Int_Tables_number   1
_chemical_formula_structural   Mn(BW)2
_chemical_formula_sum   'Mn2 B4 W4'
_cell_volume   24.92664619
_cell_formula_units_Z   2
loop_
 _symmetry_equiv_pos_site_id
 _symmetry_equiv_pos_as_xyz
  1  'x, y, z'
loop_
 _atom_site_type_symbol
 _atom_site_label
 _atom_site_symmetry_multiplicity
 _atom_site_fract_x
 _atom_site_fract_y
 _atom_site_fract_z
 _atom_site_occupancy
  Mn  Mn1  1  0.00000000  0.70292652  0.51276755  1.0
  Mn  Mn2  1  0.00000000  0.00000000  0.00000000  1.0
  B  B1  1  0.00000000  0.62629235  0.00000000  1.0
  B  B2  1  0.00000000  0.52155268  0.86850327  1.0
  B  B3  1  0.13633385  0.88202763  0.86803174  1.0
  B  B4  1  0.00000000  0.00000000  0.69675398  1.0
  W  W1  1  0.37250233  0.55092740  0.68204111  1.0
  W  W2  1  0.46410584  0.34628451  0.25545108  1.0
  W  W3  1  0.24772754  0.18903881  0.77451628  1.0
  W  W4  1  0.70331091  0.78233522  0.20903446  1.0
