# generated using pymatgen
data_Mn2GaW
_symmetry_space_group_name_H-M   'P 1'
_cell_length_a   2.73685479
_cell_length_b   4.91647816
_cell_length_c   2.93796086
_cell_angle_alpha   55.50157166
_cell_angle_beta   63.13138580
_cell_angle_gamma   61.32691193
_symmetry_Int_Tables_number   1
_chemical_formula_structural   Mn2GaW
_chemical_formula_sum   'Mn2 Ga1 W1'
_cell_volume   27.68317305
_cell_formula_units_Z   1
loop_
 _symmetry_equiv_pos_site_id
 _symmetry_equiv_pos_as_xyz
  1  'x, y, z'
loop_
 _atom_site_type_symbol
 _atom_site_label
 _atom_site_symmetry_multiplicity
 _atom_site_fract_x
 _atom_site_fract_y
 _atom_site_fract_z
 _atom_site_occupancy
  Mn  Mn1  1  0.29281250  0.28009111  0.29132974  1.0
  Mn  Mn2  1  0.81112516  0.74699354  0.63034278  1.0
  Ga  Ga1  1  0.56084770  0.57004958  0.63012421  1.0
  W  W1  1  0.00000000  0.00000000  0.00000000  1.0
