# generated using pymatgen
data_Mn2SiH
_symmetry_space_group_name_H-M   'P 1'
_cell_length_a   2.05420113
_cell_length_b   2.88182473
_cell_length_c   2.55348134
_cell_angle_alpha   75.15557861
_cell_angle_beta   74.22714233
_cell_angle_gamma   61.77503204
_symmetry_Int_Tables_number   1
_chemical_formula_structural   Mn2SiH
_chemical_formula_sum   'Mn2 Si1 H1'
_cell_volume   12.67131243
_cell_formula_units_Z   1
loop_
 _symmetry_equiv_pos_site_id
 _symmetry_equiv_pos_as_xyz
  1  'x, y, z'
loop_
 _atom_site_type_symbol
 _atom_site_label
 _atom_site_symmetry_multiplicity
 _atom_site_fract_x
 _atom_site_fract_y
 _atom_site_fract_z
 _atom_site_occupancy
  Mn  Mn1  1  0.00000000  0.00000000  0.00000000  1.0
  Mn  Mn2  1  0.51467514  0.39910686  0.43193254  1.0
  Si  Si1  1  0.25919658  0.15482929  0.16824514  1.0
  H  H1  1  0.71465123  0.77094316  0.63647979  1.0
