# generated using pymatgen
data_Mn2W2N3
_symmetry_space_group_name_H-M   'P 1'
_cell_length_a   2.62111473
_cell_length_b   1.88703120
_cell_length_c   5.74050474
_cell_angle_alpha   83.76778412
_cell_angle_beta   77.17100525
_cell_angle_gamma   112.03652954
_symmetry_Int_Tables_number   1
_chemical_formula_structural   Mn2W2N3
_chemical_formula_sum   'Mn2 W2 N3'
_cell_volume   25.07706864
_cell_formula_units_Z   1
loop_
 _symmetry_equiv_pos_site_id
 _symmetry_equiv_pos_as_xyz
  1  'x, y, z'
loop_
 _atom_site_type_symbol
 _atom_site_label
 _atom_site_symmetry_multiplicity
 _atom_site_fract_x
 _atom_site_fract_y
 _atom_site_fract_z
 _atom_site_occupancy
  Mn  Mn1  1  0.00000000  0.00000000  0.83644527  1.0
  Mn  Mn2  1  0.00000000  0.00000000  0.34906912  1.0
  W  W1  1  0.67476451  0.40277821  0.40037453  1.0
  W  W2  1  0.26670903  0.70602202  0.86847669  1.0
  N  N1  1  0.43461934  0.33477265  0.89530307  1.0
  N  N2  1  0.27359536  0.44066843  0.59448862  1.0
  N  N3  1  0.00000000  0.00000000  0.00000000  1.0
