# generated using pymatgen
data_Mn3AlC
_symmetry_space_group_name_H-M   'P 1'
_cell_length_a   1.42411351
_cell_length_b   1.78717351
_cell_length_c   2.12625813
_cell_angle_alpha   77.01804352
_cell_angle_beta   74.08805847
_cell_angle_gamma   68.58957672
_symmetry_Int_Tables_number   1
_chemical_formula_structural   Mn3AlC
_chemical_formula_sum   'Mn3 Al1 C1'
_cell_volume   4.79799869
_cell_formula_units_Z   1
loop_
 _symmetry_equiv_pos_site_id
 _symmetry_equiv_pos_as_xyz
  1  'x, y, z'
loop_
 _atom_site_type_symbol
 _atom_site_label
 _atom_site_symmetry_multiplicity
 _atom_site_fract_x
 _atom_site_fract_y
 _atom_site_fract_z
 _atom_site_occupancy
  Mn  Mn1  1  0.00000000  0.61444879  0.66442007  1.0
  Mn  Mn2  1  0.24361336  0.70414674  0.00000000  1.0
  Mn  Mn3  1  0.52271760  0.00000000  0.41314584  1.0
  Al  Al1  1  0.00000000  0.00000000  0.00000000  1.0
  C  C1  1  0.14810684  0.23846817  0.61601305  1.0
