# generated using pymatgen
data_Mn3B4
_symmetry_space_group_name_H-M   'P 1'
_cell_length_a   2.14783192
_cell_length_b   2.17457819
_cell_length_c   8.36603832
_cell_angle_alpha   92.78132629
_cell_angle_beta   106.58496857
_cell_angle_gamma   96.29823303
_symmetry_Int_Tables_number   1
_chemical_formula_structural   Mn3B4
_chemical_formula_sum   'Mn3 B4'
_cell_volume   37.09206581
_cell_formula_units_Z   1
loop_
 _symmetry_equiv_pos_site_id
 _symmetry_equiv_pos_as_xyz
  1  'x, y, z'
loop_
 _atom_site_type_symbol
 _atom_site_label
 _atom_site_symmetry_multiplicity
 _atom_site_fract_x
 _atom_site_fract_y
 _atom_site_fract_z
 _atom_site_occupancy
  Mn  Mn1  1  0.28709966  0.12027237  0.27487570  1.0
  Mn  Mn2  1  0.81661129  0.85578847  0.50199926  1.0
  Mn  Mn3  1  0.74677485  0.00000000  0.00000000  1.0
  B  B1  1  0.93023640  0.30307174  0.78458261  1.0
  B  B2  1  0.00000000  0.40297684  0.19817483  1.0
  B  B3  1  0.43309543  0.21082768  0.73300242  1.0
  B  B4  1  0.50018424  0.78102958  0.20840049  1.0
