# generated using pymatgen
data_Mn3Rh
_symmetry_space_group_name_H-M   'P 1'
_cell_length_a   3.44527507
_cell_length_b   2.40157890
_cell_length_c   1.65610397
_cell_angle_alpha   103.45642090
_cell_angle_beta   90.04849243
_cell_angle_gamma   110.76969910
_symmetry_Int_Tables_number   1
_chemical_formula_structural   Mn3Rh
_chemical_formula_sum   'Mn3 Rh1'
_cell_volume   12.40806496
_cell_formula_units_Z   1
loop_
 _symmetry_equiv_pos_site_id
 _symmetry_equiv_pos_as_xyz
  1  'x, y, z'
loop_
 _atom_site_type_symbol
 _atom_site_label
 _atom_site_symmetry_multiplicity
 _atom_site_fract_x
 _atom_site_fract_y
 _atom_site_fract_z
 _atom_site_occupancy
  Mn  Mn1  1  0.00000000  0.51496971  0.61810708  1.0
  Mn  Mn2  1  0.54559761  0.47472623  0.00000000  1.0
  Mn  Mn3  1  0.55644161  0.00000000  0.31257373  1.0
  Rh  Rh1  1  0.00000000  0.00000000  0.00000000  1.0
