# generated using pymatgen
data_MnB4
_symmetry_space_group_name_H-M   'P 1'
_cell_length_a   2.53245878
_cell_length_b   2.92775702
_cell_length_c   1.96673810
_cell_angle_alpha   89.80995941
_cell_angle_beta   88.41259766
_cell_angle_gamma   63.76591110
_symmetry_Int_Tables_number   1
_chemical_formula_structural   MnB4
_chemical_formula_sum   'Mn1 B4'
_cell_volume   13.07452722
_cell_formula_units_Z   1
loop_
 _symmetry_equiv_pos_site_id
 _symmetry_equiv_pos_as_xyz
  1  'x, y, z'
loop_
 _atom_site_type_symbol
 _atom_site_label
 _atom_site_symmetry_multiplicity
 _atom_site_fract_x
 _atom_site_fract_y
 _atom_site_fract_z
 _atom_site_occupancy
  Mn  Mn1  1  0.11181790  0.00000000  0.00000000  1.0
  B  B1  1  0.82989246  0.83168089  0.57171112  1.0
  B  B2  1  0.16202384  0.26183265  0.19041160  1.0
  B  B3  1  0.17809212  0.12907034  0.45995316  1.0
  B  B4  1  0.87484956  0.58504283  0.82497776  1.0
