# generated using pymatgen
data_MnNbN2
_symmetry_space_group_name_H-M   'P 1'
_cell_length_a   2.89074696
_cell_length_b   2.89074637
_cell_length_c   5.39588438
_cell_angle_alpha   89.99998944
_cell_angle_beta   90.00007123
_cell_angle_gamma   120.00004613
_symmetry_Int_Tables_number   1
_chemical_formula_structural   MnNbN2
_chemical_formula_sum   'Mn1 Nb1 N2'
_cell_volume   39.04928908
_cell_formula_units_Z   1
loop_
 _symmetry_equiv_pos_site_id
 _symmetry_equiv_pos_as_xyz
  1  'x, y, z'
loop_
 _atom_site_type_symbol
 _atom_site_label
 _atom_site_symmetry_multiplicity
 _atom_site_fract_x
 _atom_site_fract_y
 _atom_site_fract_z
 _atom_site_occupancy
  Mn  Mn0  1  0.00000000  0.00000000  0.50000000  1.0
  Nb  Nb1  1  0.00000000  0.00000000  0.00000000  1.0
  N  N2  1  0.33333333  0.66666667  0.27718955  1.0
  N  N3  1  0.66666667  0.33333333  0.72281045  1.0
