# generated using pymatgen
data_MnReO2
_symmetry_space_group_name_H-M   'P 1'
_cell_length_a   2.88178597
_cell_length_b   2.88178557
_cell_length_c   5.99957504
_cell_angle_alpha   89.99995893
_cell_angle_beta   90.00002392
_cell_angle_gamma   119.99980463
_symmetry_Int_Tables_number   1
_chemical_formula_structural   MnReO2
_chemical_formula_sum   'Mn1 Re1 O2'
_cell_volume   43.14945964
_cell_formula_units_Z   1
loop_
 _symmetry_equiv_pos_site_id
 _symmetry_equiv_pos_as_xyz
  1  'x, y, z'
loop_
 _atom_site_type_symbol
 _atom_site_label
 _atom_site_symmetry_multiplicity
 _atom_site_fract_x
 _atom_site_fract_y
 _atom_site_fract_z
 _atom_site_occupancy
  Mn  Mn0  1  0.00000012  0.00000014  0.50000000  1.0
  Re  Re1  1  0.00000004  0.99999992  0.99999992  1.0
  O  O2  1  0.33333333  0.66666667  0.23898206  1.0
  O  O3  1  0.66666667  0.33333333  0.76101802  1.0
