# generated using pymatgen
data_MnV2Os
_symmetry_space_group_name_H-M   'P 1'
_cell_length_a   2.47051668
_cell_length_b   3.50058675
_cell_length_c   3.68171883
_cell_angle_alpha   60.59339905
_cell_angle_beta   54.28163910
_cell_angle_gamma   52.78181458
_symmetry_Int_Tables_number   1
_chemical_formula_structural   MnV2Os
_chemical_formula_sum   'Mn1 V2 Os1'
_cell_volume   20.11261716
_cell_formula_units_Z   1
loop_
 _symmetry_equiv_pos_site_id
 _symmetry_equiv_pos_as_xyz
  1  'x, y, z'
loop_
 _atom_site_type_symbol
 _atom_site_label
 _atom_site_symmetry_multiplicity
 _atom_site_fract_x
 _atom_site_fract_y
 _atom_site_fract_z
 _atom_site_occupancy
  Mn  Mn1  1  0.27564728  0.18618900  0.16708928  1.0
  V  V1  1  0.68833625  0.31138450  0.51932126  1.0
  V  V2  1  0.00000000  0.00000000  0.00000000  1.0
  Os  Os1  1  0.70812970  0.66959578  0.74019444  1.0
