# generated using pymatgen
data_MnV2Ir
_symmetry_space_group_name_H-M   'P 1'
_cell_length_a   2.88423157
_cell_length_b   3.93914771
_cell_length_c   3.88855052
_cell_angle_alpha   67.17473602
_cell_angle_beta   59.74706650
_cell_angle_gamma   75.58283234
_symmetry_Int_Tables_number   1
_chemical_formula_structural   MnV2Ir
_chemical_formula_sum   'Mn1 V2 Ir1'
_cell_volume   35.09457579
_cell_formula_units_Z   1
loop_
 _symmetry_equiv_pos_site_id
 _symmetry_equiv_pos_as_xyz
  1  'x, y, z'
loop_
 _atom_site_type_symbol
 _atom_site_label
 _atom_site_symmetry_multiplicity
 _atom_site_fract_x
 _atom_site_fract_y
 _atom_site_fract_z
 _atom_site_occupancy
  Mn  Mn1  1  0.76542014  0.62197500  0.75275487  1.0
  V  V1  1  0.00000000  0.00000000  0.00000000  1.0
  V  V2  1  0.24180737  0.34324163  0.17943564  1.0
  Ir  Ir1  1  0.00000000  0.00000000  0.25973406  1.0
