# generated using pymatgen
data_Mo2N
_symmetry_space_group_name_H-M   'P 1'
_cell_length_a   3.58061314
_cell_length_b   5.86630392
_cell_length_c   2.49809551
_cell_angle_alpha   92.19675446
_cell_angle_beta   109.31196594
_cell_angle_gamma   94.44155121
_symmetry_Int_Tables_number   1
_chemical_formula_structural   Mo2N
_chemical_formula_sum   'Mo4 N2'
_cell_volume   49.25703104
_cell_formula_units_Z   2
loop_
 _symmetry_equiv_pos_site_id
 _symmetry_equiv_pos_as_xyz
  1  'x, y, z'
loop_
 _atom_site_type_symbol
 _atom_site_label
 _atom_site_symmetry_multiplicity
 _atom_site_fract_x
 _atom_site_fract_y
 _atom_site_fract_z
 _atom_site_occupancy
  Mo  Mo1  1  0.25852293  0.11441475  0.91880858  1.0
  Mo  Mo2  1  0.14871582  0.54100740  0.20655066  1.0
  Mo  Mo3  1  0.89931977  0.80074489  0.57442439  1.0
  Mo  Mo4  1  0.79889011  0.76465344  0.48482117  1.0
  N  N1  1  0.54592544  0.22013849  0.21335587  1.0
  N  N2  1  0.58425176  0.68552268  0.75601560  1.0
