# generated using pymatgen
data_Mo2Ru7
_symmetry_space_group_name_H-M   'P 1'
_cell_length_a   2.66579390
_cell_length_b   7.47893286
_cell_length_c   2.70799851
_cell_angle_alpha   102.75605774
_cell_angle_beta   95.68938446
_cell_angle_gamma   127.43289948
_symmetry_Int_Tables_number   1
_chemical_formula_structural   Mo2Ru7
_chemical_formula_sum   'Mo2 Ru7'
_cell_volume   39.87054910
_cell_formula_units_Z   1
loop_
 _symmetry_equiv_pos_site_id
 _symmetry_equiv_pos_as_xyz
  1  'x, y, z'
loop_
 _atom_site_type_symbol
 _atom_site_label
 _atom_site_symmetry_multiplicity
 _atom_site_fract_x
 _atom_site_fract_y
 _atom_site_fract_z
 _atom_site_occupancy
  Mo  Mo1  1  0.75117916  0.33024341  0.28412345  1.0
  Mo  Mo2  1  0.24151197  0.69835901  0.86378944  1.0
  Ru  Ru1  1  0.71369469  0.16621423  0.70469117  1.0
  Ru  Ru2  1  0.32662803  0.00000000  0.81814629  1.0
  Ru  Ru3  1  0.81908655  0.46610212  0.86964631  1.0
  Ru  Ru4  1  0.30419272  0.86695790  0.55129421  1.0
  Ru  Ru5  1  0.85482621  0.89839572  0.26455984  1.0
  Ru  Ru6  1  0.16167477  0.20326725  0.15898246  1.0
  Ru  Ru7  1  0.00000000  0.00000000  0.00000000  1.0
