# generated using pymatgen
data_Mo3Pt
_symmetry_space_group_name_H-M   'P 1'
_cell_length_a   3.60135269
_cell_length_b   2.88348174
_cell_length_c   3.03575158
_cell_angle_alpha   95.36220551
_cell_angle_beta   77.92080688
_cell_angle_gamma   92.99793243
_symmetry_Int_Tables_number   1
_chemical_formula_structural   Mo3Pt
_chemical_formula_sum   'Mo6 Pt2'
_cell_volume   30.67432223
_cell_formula_units_Z   2
loop_
 _symmetry_equiv_pos_site_id
 _symmetry_equiv_pos_as_xyz
  1  'x, y, z'
loop_
 _atom_site_type_symbol
 _atom_site_label
 _atom_site_symmetry_multiplicity
 _atom_site_fract_x
 _atom_site_fract_y
 _atom_site_fract_z
 _atom_site_occupancy
  Mo  Mo1  1  0.43477926  0.00000000  0.87699699  1.0
  Mo  Mo2  1  0.80908847  0.00000000  0.41265231  1.0
  Mo  Mo3  1  0.00000000  0.56094187  0.29734635  1.0
  Mo  Mo4  1  0.00000000  0.67021596  0.78778368  1.0
  Mo  Mo5  1  0.48202106  0.48853934  0.00000000  1.0
  Mo  Mo6  1  0.58406645  0.21007267  0.00000000  1.0
  Pt  Pt1  1  0.00000000  0.00000000  0.00000000  1.0
  Pt  Pt2  1  0.38938245  0.55688852  0.51768875  1.0
