# generated using pymatgen
data_Mo
_symmetry_space_group_name_H-M   'P 1'
_cell_length_a   3.69167972
_cell_length_b   5.13046074
_cell_length_c   3.34441662
_cell_angle_alpha   74.50385284
_cell_angle_beta   89.30495453
_cell_angle_gamma   82.37128448
_symmetry_Int_Tables_number   1
_chemical_formula_structural   Mo
_chemical_formula_sum   Mo6
_cell_volume   60.48235514
_cell_formula_units_Z   6
loop_
 _symmetry_equiv_pos_site_id
 _symmetry_equiv_pos_as_xyz
  1  'x, y, z'
loop_
 _atom_site_type_symbol
 _atom_site_label
 _atom_site_symmetry_multiplicity
 _atom_site_fract_x
 _atom_site_fract_y
 _atom_site_fract_z
 _atom_site_occupancy
  Mo  Mo1  1  0.51423734  0.00000000  0.50872666  1.0
  Mo  Mo2  1  0.73678470  0.00000000  0.56774938  1.0
  Mo  Mo3  1  0.00000000  0.41489896  0.28358728  1.0
  Mo  Mo4  1  0.00000000  0.46142316  0.84849495  1.0
  Mo  Mo5  1  0.66462409  0.62575084  0.00000000  1.0
  Mo  Mo6  1  0.29523346  0.30303192  0.00000000  1.0
