# generated using pymatgen
data_MoHN2
_symmetry_space_group_name_H-M   'P 1'
_cell_length_a   4.05469275
_cell_length_b   4.59912443
_cell_length_c   8.64030361
_cell_angle_alpha   103.77033234
_cell_angle_beta   101.78536224
_cell_angle_gamma   132.90780640
_symmetry_Int_Tables_number   1
_chemical_formula_structural   MoHN2
_chemical_formula_sum   'Mo2 H2 N4'
_cell_volume   98.26091890
_cell_formula_units_Z   2
loop_
 _symmetry_equiv_pos_site_id
 _symmetry_equiv_pos_as_xyz
  1  'x, y, z'
loop_
 _atom_site_type_symbol
 _atom_site_label
 _atom_site_symmetry_multiplicity
 _atom_site_fract_x
 _atom_site_fract_y
 _atom_site_fract_z
 _atom_site_occupancy
  Mo  Mo1  1  0.77224445  0.43585008  0.30315563  1.0
  Mo  Mo2  1  0.62060660  0.96698612  0.74281633  1.0
  H  H1  1  0.00000000  0.00000000  0.00000000  1.0
  H  H2  1  0.12004974  0.20295748  0.74688280  1.0
  N  N1  1  0.23497921  0.82047033  0.18891555  1.0
  N  N2  1  0.44966483  0.88557863  0.27860373  1.0
  N  N3  1  0.46676585  0.50998092  0.71769369  1.0
  N  N4  1  0.87478864  0.27143273  0.87221152  1.0
