# generated using pymatgen
data_MoP2Ir
_symmetry_space_group_name_H-M   'P 1'
_cell_length_a   4.26540350
_cell_length_b   4.26539790
_cell_length_c   4.26539945
_cell_angle_alpha   60.00000118
_cell_angle_beta   59.99998367
_cell_angle_gamma   59.99998159
_symmetry_Int_Tables_number   1
_chemical_formula_structural   MoP2Ir
_chemical_formula_sum   'Mo1 P2 Ir1'
_cell_volume   54.87370351
_cell_formula_units_Z   1
loop_
 _symmetry_equiv_pos_site_id
 _symmetry_equiv_pos_as_xyz
  1  'x, y, z'
loop_
 _atom_site_type_symbol
 _atom_site_label
 _atom_site_symmetry_multiplicity
 _atom_site_fract_x
 _atom_site_fract_y
 _atom_site_fract_z
 _atom_site_occupancy
  Mo  Mo0  1  0.75000000  0.74999929  0.74999931  1.0
  P  P1  1  0.00000005  0.99999993  0.99999996  1.0
  P  P2  1  0.49999993  0.50000092  0.50000088  1.0
  Ir  Ir3  1  0.25000002  0.24999986  0.24999985  1.0
