# generated using pymatgen
data_MoPt2
_symmetry_space_group_name_H-M   'P 1'
_cell_length_a   4.04773092
_cell_length_b   5.68113136
_cell_length_c   5.32768250
_cell_angle_alpha   113.45124054
_cell_angle_beta   119.46523285
_cell_angle_gamma   96.12448883
_symmetry_Int_Tables_number   1
_chemical_formula_structural   MoPt2
_chemical_formula_sum   'Mo1 Pt2'
_cell_volume   90.56963255
_cell_formula_units_Z   1
loop_
 _symmetry_equiv_pos_site_id
 _symmetry_equiv_pos_as_xyz
  1  'x, y, z'
loop_
 _atom_site_type_symbol
 _atom_site_label
 _atom_site_symmetry_multiplicity
 _atom_site_fract_x
 _atom_site_fract_y
 _atom_site_fract_z
 _atom_site_occupancy
  Mo  Mo1  1  0.00000000  0.00000000  0.00000000  1.0
  Pt  Pt1  1  0.76207829  0.66565078  0.33547908  1.0
  Pt  Pt2  1  0.22612029  0.25209397  0.75396419  1.0
