# generated using pymatgen
data_MoPt3
_symmetry_space_group_name_H-M   'P 1'
_cell_length_a   3.17202735
_cell_length_b   4.87782192
_cell_length_c   3.04959607
_cell_angle_alpha   92.15426636
_cell_angle_beta   69.77234650
_cell_angle_gamma   83.68905640
_symmetry_Int_Tables_number   1
_chemical_formula_structural   MoPt3
_chemical_formula_sum   'Mo1 Pt3'
_cell_volume   43.86193745
_cell_formula_units_Z   1
loop_
 _symmetry_equiv_pos_site_id
 _symmetry_equiv_pos_as_xyz
  1  'x, y, z'
loop_
 _atom_site_type_symbol
 _atom_site_label
 _atom_site_symmetry_multiplicity
 _atom_site_fract_x
 _atom_site_fract_y
 _atom_site_fract_z
 _atom_site_occupancy
  Mo  Mo1  1  0.00000000  0.00000000  0.00000000  1.0
  Pt  Pt1  1  0.48366976  0.67079723  0.00000000  1.0
  Pt  Pt2  1  0.27757072  0.00000000  0.66485018  1.0
  Pt  Pt3  1  0.00000000  0.34309864  0.14789376  1.0
