# generated using pymatgen
data_MoRh
_symmetry_space_group_name_H-M   'P 1'
_cell_length_a   1.49097884
_cell_length_b   3.21428251
_cell_length_c   4.48990440
_cell_angle_alpha   99.96246338
_cell_angle_beta   101.79921722
_cell_angle_gamma   71.96451569
_symmetry_Int_Tables_number   1
_chemical_formula_structural   MoRh
_chemical_formula_sum   'Mo2 Rh2'
_cell_volume   19.88838041
_cell_formula_units_Z   2
loop_
 _symmetry_equiv_pos_site_id
 _symmetry_equiv_pos_as_xyz
  1  'x, y, z'
loop_
 _atom_site_type_symbol
 _atom_site_label
 _atom_site_symmetry_multiplicity
 _atom_site_fract_x
 _atom_site_fract_y
 _atom_site_fract_z
 _atom_site_occupancy
  Mo  Mo1  1  0.00000000  0.88219631  0.76892531  1.0
  Mo  Mo2  1  0.13737342  0.41887063  0.18129849  1.0
  Rh  Rh1  1  0.56327903  0.78100967  0.17579356  1.0
  Rh  Rh2  1  0.52558857  0.21513590  0.84704518  1.0
