# generated using pymatgen
data_MoRu3
_symmetry_space_group_name_H-M   'P 1'
_cell_length_a   6.03711557
_cell_length_b   6.88813019
_cell_length_c   1.66773248
_cell_angle_alpha   90.68214417
_cell_angle_beta   90.65176392
_cell_angle_gamma   126.18192291
_symmetry_Int_Tables_number   1
_chemical_formula_structural   MoRu3
_chemical_formula_sum   'Mo2 Ru6'
_cell_volume   55.95848352
_cell_formula_units_Z   2
loop_
 _symmetry_equiv_pos_site_id
 _symmetry_equiv_pos_as_xyz
  1  'x, y, z'
loop_
 _atom_site_type_symbol
 _atom_site_label
 _atom_site_symmetry_multiplicity
 _atom_site_fract_x
 _atom_site_fract_y
 _atom_site_fract_z
 _atom_site_occupancy
  Mo  Mo1  1  0.54332209  0.46119669  0.16468304  1.0
  Mo  Mo2  1  0.34414488  0.46431038  0.69255751  1.0
  Ru  Ru1  1  0.74203336  0.22617111  0.87923634  1.0
  Ru  Ru2  1  0.50326884  0.19975346  0.79004526  1.0
  Ru  Ru3  1  0.95078588  0.61787480  0.87771380  1.0
  Ru  Ru4  1  0.23821613  0.78427339  0.35526282  1.0
  Ru  Ru5  1  0.75905633  0.49956951  0.65308070  1.0
  Ru  Ru6  1  0.00000000  0.14231026  0.12443432  1.0
