# generated using pymatgen
data_Na3(GePt)4
_symmetry_space_group_name_H-M   'P 1'
_cell_length_a   4.45270538
_cell_length_b   5.50223064
_cell_length_c   5.39126587
_cell_angle_alpha   106.98238373
_cell_angle_beta   120.28171539
_cell_angle_gamma   105.94566345
_symmetry_Int_Tables_number   1
_chemical_formula_structural   Na3(GePt)4
_chemical_formula_sum   'Na3 Ge4 Pt4'
_cell_volume   93.77316226
_cell_formula_units_Z   1
loop_
 _symmetry_equiv_pos_site_id
 _symmetry_equiv_pos_as_xyz
  1  'x, y, z'
loop_
 _atom_site_type_symbol
 _atom_site_label
 _atom_site_symmetry_multiplicity
 _atom_site_fract_x
 _atom_site_fract_y
 _atom_site_fract_z
 _atom_site_occupancy
  Na  Na1  1  0.00000000  0.50237381  0.27300620  1.0
  Na  Na2  1  0.44276157  0.00000000  0.74586368  1.0
  Na  Na3  1  0.49474248  0.56619251  0.00000000  1.0
  Ge  Ge1  1  0.00000000  0.53375262  0.00000000  1.0
  Ge  Ge2  1  0.41105253  0.00000000  0.00000000  1.0
  Ge  Ge3  1  0.28482607  0.00000000  0.50728798  1.0
  Ge  Ge4  1  0.33310086  0.57917064  0.45859683  1.0
  Pt  Pt1  1  0.18207213  0.00000000  0.75450432  1.0
  Pt  Pt2  1  0.80174989  0.00000000  0.00000000  1.0
  Pt  Pt3  1  0.19877909  0.66234988  0.31182972  1.0
  Pt  Pt4  1  0.00000000  0.66903019  0.00000000  1.0
