# generated using pymatgen
data_Nb3B2
_symmetry_space_group_name_H-M   'P 1'
_cell_length_a   2.48120403
_cell_length_b   5.39105511
_cell_length_c   5.80416250
_cell_angle_alpha   80.41104889
_cell_angle_beta   92.18656921
_cell_angle_gamma   99.88937378
_symmetry_Int_Tables_number   1
_chemical_formula_structural   Nb3B2
_chemical_formula_sum   'Nb6 B4'
_cell_volume   75.41238120
_cell_formula_units_Z   2
loop_
 _symmetry_equiv_pos_site_id
 _symmetry_equiv_pos_as_xyz
  1  'x, y, z'
loop_
 _atom_site_type_symbol
 _atom_site_label
 _atom_site_symmetry_multiplicity
 _atom_site_fract_x
 _atom_site_fract_y
 _atom_site_fract_z
 _atom_site_occupancy
  Nb  Nb1  1  0.00000000  0.00000000  0.00000000  1.0
  Nb  Nb2  1  0.00000000  0.48148924  0.52580750  1.0
  Nb  Nb3  1  0.62078899  0.80494153  0.34779170  1.0
  Nb  Nb4  1  0.71520674  0.58497459  0.73033768  1.0
  Nb  Nb5  1  0.24718758  0.50237775  0.22230440  1.0
  Nb  Nb6  1  0.59885728  0.00000000  0.76969153  1.0
  B  B1  1  0.00000000  0.47072914  0.15163302  1.0
  B  B2  1  0.00000000  0.87682426  0.60743904  1.0
  B  B3  1  0.00000000  0.28631663  0.21309209  1.0
  B  B4  1  0.00000000  0.59043008  0.70502561  1.0
