# generated using pymatgen
data_Nb3B4
_symmetry_space_group_name_H-M   'P 1'
_cell_length_a   1.57151544
_cell_length_b   2.01285768
_cell_length_c   5.90849447
_cell_angle_alpha   101.36959839
_cell_angle_beta   102.84065247
_cell_angle_gamma   87.74085999
_symmetry_Int_Tables_number   1
_chemical_formula_structural   Nb3B4
_chemical_formula_sum   'Nb3 B4'
_cell_volume   17.86477773
_cell_formula_units_Z   1
loop_
 _symmetry_equiv_pos_site_id
 _symmetry_equiv_pos_as_xyz
  1  'x, y, z'
loop_
 _atom_site_type_symbol
 _atom_site_label
 _atom_site_symmetry_multiplicity
 _atom_site_fract_x
 _atom_site_fract_y
 _atom_site_fract_z
 _atom_site_occupancy
  Nb  Nb1  1  0.27001229  0.14517197  0.49237001  1.0
  Nb  Nb2  1  0.58213204  0.82308829  0.74187100  1.0
  Nb  Nb3  1  0.51631302  0.00000000  0.00000000  1.0
  B  B1  1  0.90204179  0.63629138  0.87936527  1.0
  B  B2  1  0.00000000  0.71566802  0.17239866  1.0
  B  B3  1  0.12723911  0.22751597  0.67780071  1.0
  B  B4  1  0.62295258  0.77506888  0.48870221  1.0
