# generated using pymatgen
data_Nb5C3
_symmetry_space_group_name_H-M   'P 1'
_cell_length_a   3.83259439
_cell_length_b   6.71884108
_cell_length_c   7.25421524
_cell_angle_alpha   88.60359192
_cell_angle_beta   76.30802917
_cell_angle_gamma   97.56011963
_symmetry_Int_Tables_number   1
_chemical_formula_structural   Nb5C3
_chemical_formula_sum   'Nb5 C3'
_cell_volume   179.61518090
_cell_formula_units_Z   1
loop_
 _symmetry_equiv_pos_site_id
 _symmetry_equiv_pos_as_xyz
  1  'x, y, z'
loop_
 _atom_site_type_symbol
 _atom_site_label
 _atom_site_symmetry_multiplicity
 _atom_site_fract_x
 _atom_site_fract_y
 _atom_site_fract_z
 _atom_site_occupancy
  Nb  Nb1  1  0.11709520  0.53019333  0.00000000  1.0
  Nb  Nb2  1  0.00000000  0.00000000  0.41272578  1.0
  Nb  Nb3  1  0.30746228  0.00000000  0.00000000  1.0
  Nb  Nb4  1  0.44775680  0.32493278  0.50347769  1.0
  Nb  Nb5  1  0.77870268  0.00000000  0.44985136  1.0
  C  C1  1  0.62838942  0.77780223  0.00000000  1.0
  C  C2  1  0.14306459  0.76011491  0.48397422  1.0
  C  C3  1  0.00000000  0.00000000  0.00000000  1.0
