# generated using pymatgen
data_NbB2
_symmetry_space_group_name_H-M   'P 1'
_cell_length_a   3.54156184
_cell_length_b   2.06161237
_cell_length_c   3.55313444
_cell_angle_alpha   97.06878662
_cell_angle_beta   85.75012207
_cell_angle_gamma   128.65219116
_symmetry_Int_Tables_number   1
_chemical_formula_structural   NbB2
_chemical_formula_sum   'Nb1 B2'
_cell_volume   20.10580038
_cell_formula_units_Z   1
loop_
 _symmetry_equiv_pos_site_id
 _symmetry_equiv_pos_as_xyz
  1  'x, y, z'
loop_
 _atom_site_type_symbol
 _atom_site_label
 _atom_site_symmetry_multiplicity
 _atom_site_fract_x
 _atom_site_fract_y
 _atom_site_fract_z
 _atom_site_occupancy
  Nb  Nb1  1  0.00000000  0.00000000  0.00000000  1.0
  B  B1  1  0.41178414  0.52708417  0.43768013  1.0
  B  B2  1  0.70478123  0.47677270  0.66988838  1.0
