# generated using pymatgen
data_NbBO4
_symmetry_space_group_name_H-M   'P 1'
_cell_length_a   1.61843276
_cell_length_b   2.15618539
_cell_length_c   2.18601418
_cell_angle_alpha   66.03515625
_cell_angle_beta   100.55426788
_cell_angle_gamma   108.19139862
_symmetry_Int_Tables_number   1
_chemical_formula_structural   NbBO4
_chemical_formula_sum   'Nb2 B2 O8'
_cell_volume   6.60841752
_cell_formula_units_Z   2
loop_
 _symmetry_equiv_pos_site_id
 _symmetry_equiv_pos_as_xyz
  1  'x, y, z'
loop_
 _atom_site_type_symbol
 _atom_site_label
 _atom_site_symmetry_multiplicity
 _atom_site_fract_x
 _atom_site_fract_y
 _atom_site_fract_z
 _atom_site_occupancy
  Nb  Nb1  1  0.11036888  0.88796747  0.25752664  1.0
  Nb  Nb2  1  0.87449777  0.00000000  0.72478783  1.0
  B  B1  1  0.56388897  0.41271597  0.48707104  1.0
  B  B2  1  0.37872460  0.59420383  0.92722642  1.0
  O  O1  1  0.88991618  0.51156861  0.13279301  1.0
  O  O2  1  0.79316604  0.61927539  0.96905529  1.0
  O  O3  1  0.16880727  0.00000000  0.00000000  1.0
  O  O4  1  0.20392311  0.61206579  0.81030190  1.0
  O  O5  1  0.00000000  0.41739506  0.32805416  1.0
  O  O6  1  0.78684354  0.15843119  0.34474978  1.0
  O  O7  1  0.82056093  0.77383196  0.56013626  1.0
  O  O8  1  0.42836156  0.82938755  0.64824754  1.0
