# generated using pymatgen
data_NbC
_symmetry_space_group_name_H-M   'P 1'
_cell_length_a   2.89085817
_cell_length_b   3.02896547
_cell_length_c   2.38875222
_cell_angle_alpha   85.52219391
_cell_angle_beta   81.22293854
_cell_angle_gamma   98.77813721
_symmetry_Int_Tables_number   1
_chemical_formula_structural   NbC
_chemical_formula_sum   'Nb4 C4'
_cell_volume   20.31927051
_cell_formula_units_Z   4
loop_
 _symmetry_equiv_pos_site_id
 _symmetry_equiv_pos_as_xyz
  1  'x, y, z'
loop_
 _atom_site_type_symbol
 _atom_site_label
 _atom_site_symmetry_multiplicity
 _atom_site_fract_x
 _atom_site_fract_y
 _atom_site_fract_z
 _atom_site_occupancy
  Nb  Nb1  1  0.00000000  0.63964629  0.00000000  1.0
  Nb  Nb2  1  0.00000000  0.00000000  0.60524166  1.0
  Nb  Nb3  1  0.43869945  0.00000000  0.00000000  1.0
  Nb  Nb4  1  0.66864026  0.66555816  0.51023597  1.0
  C  C1  1  0.60030770  0.00000000  0.35587594  1.0
  C  C2  1  0.36161867  0.48219568  0.00000000  1.0
  C  C3  1  0.00000000  0.19062659  0.47338712  1.0
  C  C4  1  0.00000000  0.00000000  0.15582040  1.0
