# generated using pymatgen
data_NbCo3C
_symmetry_space_group_name_H-M   'P 1'
_cell_length_a   2.73689747
_cell_length_b   2.60971069
_cell_length_c   2.29817104
_cell_angle_alpha   74.35735321
_cell_angle_beta   64.85807800
_cell_angle_gamma   106.36629486
_symmetry_Int_Tables_number   1
_chemical_formula_structural   NbCo3C
_chemical_formula_sum   'Nb1 Co3 C1'
_cell_volume   12.74473402
_cell_formula_units_Z   1
loop_
 _symmetry_equiv_pos_site_id
 _symmetry_equiv_pos_as_xyz
  1  'x, y, z'
loop_
 _atom_site_type_symbol
 _atom_site_label
 _atom_site_symmetry_multiplicity
 _atom_site_fract_x
 _atom_site_fract_y
 _atom_site_fract_z
 _atom_site_occupancy
  Nb  Nb1  1  0.00000000  0.00000000  0.00000000  1.0
  Co  Co1  1  0.00000000  0.38221017  0.53247881  1.0
  Co  Co2  1  0.54672617  0.00000000  0.55644429  1.0
  Co  Co3  1  0.58733040  0.52340674  0.00000000  1.0
  C  C1  1  0.62627119  0.67359555  0.40457842  1.0
