# generated using pymatgen
data_NbCrN
_symmetry_space_group_name_H-M   'P 1'
_cell_length_a   2.71866655
_cell_length_b   2.42320156
_cell_length_c   6.82907057
_cell_angle_alpha   77.37986755
_cell_angle_beta   83.61250305
_cell_angle_gamma   95.30068970
_symmetry_Int_Tables_number   1
_chemical_formula_structural   NbCrN
_chemical_formula_sum   'Nb2 Cr2 N2'
_cell_volume   43.31261684
_cell_formula_units_Z   2
loop_
 _symmetry_equiv_pos_site_id
 _symmetry_equiv_pos_as_xyz
  1  'x, y, z'
loop_
 _atom_site_type_symbol
 _atom_site_label
 _atom_site_symmetry_multiplicity
 _atom_site_fract_x
 _atom_site_fract_y
 _atom_site_fract_z
 _atom_site_occupancy
  Nb  Nb1  1  0.64850318  0.13622978  0.15251535  1.0
  Nb  Nb2  1  0.00000000  0.45936221  0.74446505  1.0
  Cr  Cr1  1  0.00000000  0.43727872  0.52405888  1.0
  Cr  Cr2  1  0.38615954  0.00000000  0.28132516  1.0
  N  N1  1  0.00000000  0.33321339  0.17844310  1.0
  N  N2  1  0.48290005  0.00000000  0.91698396  1.0
