# generated using pymatgen
data_NbFeP2
_symmetry_space_group_name_H-M   'P 1'
_cell_length_a   3.58296016
_cell_length_b   5.79868650
_cell_length_c   9.00762691
_cell_angle_alpha   90.60644374
_cell_angle_beta   89.99999958
_cell_angle_gamma   90.00000016
_symmetry_Int_Tables_number   1
_chemical_formula_structural   NbFeP2
_chemical_formula_sum   'Nb3 Fe3 P6'
_cell_volume   187.13614164
_cell_formula_units_Z   3
loop_
 _symmetry_equiv_pos_site_id
 _symmetry_equiv_pos_as_xyz
  1  'x, y, z'
loop_
 _atom_site_type_symbol
 _atom_site_label
 _atom_site_symmetry_multiplicity
 _atom_site_fract_x
 _atom_site_fract_y
 _atom_site_fract_z
 _atom_site_occupancy
  Nb  Nb0  1  0.00000000  0.49998727  0.50000092  1.0
  Nb  Nb1  1  0.00000000  0.50001833  0.00001948  1.0
  Nb  Nb2  1  0.00000000  0.99999787  0.49999427  1.0
  Fe  Fe3  1  0.00000000  0.16897837  0.24327306  1.0
  Fe  Fe4  1  0.00000001  0.83100911  0.75672499  1.0
  Fe  Fe5  1  0.99999999  0.00003355  0.99998083  1.0
  P  P6  1  0.50000000  0.21277497  0.08749250  1.0
  P  P7  1  0.50000001  0.74157488  0.62362361  1.0
  P  P8  1  0.50000000  0.78722430  0.91251590  1.0
  P  P9  1  0.50000000  0.25841145  0.37636988  1.0
  P  P10  1  0.00000001  0.22831123  0.76087180  1.0
  P  P11  1  0.99999999  0.77167867  0.23913275  1.0
