# generated using pymatgen
data_NbFe2
_symmetry_space_group_name_H-M   'P 1'
_cell_length_a   2.29546189
_cell_length_b   3.44616508
_cell_length_c   6.49865389
_cell_angle_alpha   88.05209351
_cell_angle_beta   94.41754150
_cell_angle_gamma   125.98860168
_symmetry_Int_Tables_number   1
_chemical_formula_structural   NbFe2
_chemical_formula_sum   'Nb4 Fe8'
_cell_volume   41.46822763
_cell_formula_units_Z   4
loop_
 _symmetry_equiv_pos_site_id
 _symmetry_equiv_pos_as_xyz
  1  'x, y, z'
loop_
 _atom_site_type_symbol
 _atom_site_label
 _atom_site_symmetry_multiplicity
 _atom_site_fract_x
 _atom_site_fract_y
 _atom_site_fract_z
 _atom_site_occupancy
  Nb  Nb1  1  0.51785070  0.42937076  0.36697459  1.0
  Nb  Nb2  1  0.66817719  0.22429594  0.49909818  1.0
  Nb  Nb3  1  0.71168208  0.58538783  0.78191292  1.0
  Nb  Nb4  1  0.60028225  0.51961124  0.00000000  1.0
  Fe  Fe1  1  0.00000000  0.11048383  0.26876360  1.0
  Fe  Fe2  1  0.00000000  0.00000000  0.00000000  1.0
  Fe  Fe3  1  0.00000000  0.81536341  0.94559789  1.0
  Fe  Fe4  1  0.00000000  0.12449786  0.67127228  1.0
  Fe  Fe5  1  0.53410703  0.88894355  0.77178788  1.0
  Fe  Fe6  1  0.85189581  0.00000000  0.23491408  1.0
  Fe  Fe7  1  0.84193516  0.19301006  0.24657413  1.0
  Fe  Fe8  1  0.28792921  0.00000000  0.00000000  1.0
