# generated using pymatgen
data_NbHN2
_symmetry_space_group_name_H-M   'P 1'
_cell_length_a   3.50642180
_cell_length_b   3.10057831
_cell_length_c   2.58079362
_cell_angle_alpha   131.28668213
_cell_angle_beta   127.09158325
_cell_angle_gamma   67.31404114
_symmetry_Int_Tables_number   1
_chemical_formula_structural   NbHN2
_chemical_formula_sum   'Nb2 H2 N4'
_cell_volume   16.81416445
_cell_formula_units_Z   2
loop_
 _symmetry_equiv_pos_site_id
 _symmetry_equiv_pos_as_xyz
  1  'x, y, z'
loop_
 _atom_site_type_symbol
 _atom_site_label
 _atom_site_symmetry_multiplicity
 _atom_site_fract_x
 _atom_site_fract_y
 _atom_site_fract_z
 _atom_site_occupancy
  Nb  Nb1  1  0.45681596  0.46461472  0.54175353  1.0
  Nb  Nb2  1  0.59314275  0.42808598  0.00000000  1.0
  H  H1  1  0.00000000  0.00000000  0.00000000  1.0
  H  H2  1  0.57237017  0.17358392  0.71669203  1.0
  N  N1  1  0.80967259  0.62630630  0.00000000  1.0
  N  N2  1  0.97355771  0.57936913  0.55712831  1.0
  N  N3  1  0.30775306  0.17495710  0.44032696  1.0
  N  N4  1  0.00000000  0.39885178  0.00000000  1.0
