# generated using pymatgen
data_NbIr3
_symmetry_space_group_name_H-M   'P 1'
_cell_length_a   3.32187462
_cell_length_b   4.15247965
_cell_length_c   2.79496503
_cell_angle_alpha   93.94302368
_cell_angle_beta   96.58933258
_cell_angle_gamma   75.27899933
_symmetry_Int_Tables_number   1
_chemical_formula_structural   NbIr3
_chemical_formula_sum   'Nb1 Ir3'
_cell_volume   37.01044948
_cell_formula_units_Z   1
loop_
 _symmetry_equiv_pos_site_id
 _symmetry_equiv_pos_as_xyz
  1  'x, y, z'
loop_
 _atom_site_type_symbol
 _atom_site_label
 _atom_site_symmetry_multiplicity
 _atom_site_fract_x
 _atom_site_fract_y
 _atom_site_fract_z
 _atom_site_occupancy
  Nb  Nb1  1  0.00000000  0.00000000  0.00000000  1.0
  Ir  Ir1  1  0.54085070  0.59235066  0.00000000  1.0
  Ir  Ir2  1  0.40986204  0.00000000  0.55177760  1.0
  Ir  Ir3  1  0.00000000  0.31436080  0.42156339  1.0
