# generated using pymatgen
data_NbIr
_symmetry_space_group_name_H-M   'P 1'
_cell_length_a   2.78732133
_cell_length_b   3.44463325
_cell_length_c   4.17283773
_cell_angle_alpha   83.85442352
_cell_angle_beta   95.35375977
_cell_angle_gamma   101.81366730
_symmetry_Int_Tables_number   1
_chemical_formula_structural   NbIr
_chemical_formula_sum   'Nb2 Ir2'
_cell_volume   38.88562687
_cell_formula_units_Z   2
loop_
 _symmetry_equiv_pos_site_id
 _symmetry_equiv_pos_as_xyz
  1  'x, y, z'
loop_
 _atom_site_type_symbol
 _atom_site_label
 _atom_site_symmetry_multiplicity
 _atom_site_fract_x
 _atom_site_fract_y
 _atom_site_fract_z
 _atom_site_occupancy
  Nb  Nb1  1  0.69143504  0.31143433  0.17187306  1.0
  Nb  Nb2  1  0.42277345  0.00000000  0.47402793  1.0
  Ir  Ir1  1  0.00000000  0.33172816  0.86756551  1.0
  Ir  Ir2  1  0.00000000  0.00000000  0.00000000  1.0
