# generated using pymatgen
data_NbNO
_symmetry_space_group_name_H-M   'P 1'
_cell_length_a   4.77112246
_cell_length_b   4.29149771
_cell_length_c   3.68832278
_cell_angle_alpha   96.41659546
_cell_angle_beta   103.63884735
_cell_angle_gamma   107.51041412
_symmetry_Int_Tables_number   1
_chemical_formula_structural   NbNO
_chemical_formula_sum   'Nb4 N4 O4'
_cell_volume   68.61558446
_cell_formula_units_Z   4
loop_
 _symmetry_equiv_pos_site_id
 _symmetry_equiv_pos_as_xyz
  1  'x, y, z'
loop_
 _atom_site_type_symbol
 _atom_site_label
 _atom_site_symmetry_multiplicity
 _atom_site_fract_x
 _atom_site_fract_y
 _atom_site_fract_z
 _atom_site_occupancy
  Nb  Nb1  1  0.21637073  0.71789819  0.75803328  1.0
  Nb  Nb2  1  0.75376594  0.96302390  0.65926385  1.0
  Nb  Nb3  1  0.73998868  0.59223241  0.22239873  1.0
  Nb  Nb4  1  0.24011642  0.00000000  0.00000000  1.0
  N  N1  1  0.20050123  0.63280177  0.97280729  1.0
  N  N2  1  0.34423569  0.18868110  0.66511750  1.0
  N  N3  1  0.33911550  0.18000975  0.00000000  1.0
  N  N4  1  0.51286691  0.86800164  0.60507441  1.0
  O  O1  1  0.12676683  0.40533441  0.20542184  1.0
  O  O2  1  0.85387760  0.70815533  0.00000000  1.0
  O  O3  1  0.91358835  0.61964667  0.89239329  1.0
  O  O4  1  0.00000000  0.24263853  0.86169994  1.0
