# generated using pymatgen
data_NbO
_symmetry_space_group_name_H-M   'P 1'
_cell_length_a   3.42337561
_cell_length_b   5.05751324
_cell_length_c   3.11543560
_cell_angle_alpha   99.36714172
_cell_angle_beta   111.73453522
_cell_angle_gamma   96.90149689
_symmetry_Int_Tables_number   1
_chemical_formula_structural   NbO
_chemical_formula_sum   'Nb3 O3'
_cell_volume   48.46970770
_cell_formula_units_Z   3
loop_
 _symmetry_equiv_pos_site_id
 _symmetry_equiv_pos_as_xyz
  1  'x, y, z'
loop_
 _atom_site_type_symbol
 _atom_site_label
 _atom_site_symmetry_multiplicity
 _atom_site_fract_x
 _atom_site_fract_y
 _atom_site_fract_z
 _atom_site_occupancy
  Nb  Nb1  1  0.50855076  0.14585945  0.70348144  1.0
  Nb  Nb2  1  0.36760437  0.45374945  0.00000000  1.0
  Nb  Nb3  1  0.00000000  0.60740918  0.59508908  1.0
  O  O1  1  0.00000000  0.47739676  0.00000000  1.0
  O  O2  1  0.00000000  0.00000000  0.84848344  1.0
  O  O3  1  0.61015236  0.00000000  0.16089582  1.0
