# generated using pymatgen
data_NbP2Ru
_symmetry_space_group_name_H-M   'P 1'
_cell_length_a   4.30812737
_cell_length_b   4.30830224
_cell_length_c   4.30804363
_cell_angle_alpha   59.99692492
_cell_angle_beta   59.99570567
_cell_angle_gamma   59.99873320
_symmetry_Int_Tables_number   1
_chemical_formula_structural   NbP2Ru
_chemical_formula_sum   'Nb1 P2 Ru1'
_cell_volume   56.53682881
_cell_formula_units_Z   1
loop_
 _symmetry_equiv_pos_site_id
 _symmetry_equiv_pos_as_xyz
  1  'x, y, z'
loop_
 _atom_site_type_symbol
 _atom_site_label
 _atom_site_symmetry_multiplicity
 _atom_site_fract_x
 _atom_site_fract_y
 _atom_site_fract_z
 _atom_site_occupancy
  Nb  Nb0  1  0.75000081  0.75000076  0.75000037  1.0
  P  P1  1  0.99999488  0.00000461  0.99999646  1.0
  P  P2  1  0.50000412  0.49999732  0.50000397  1.0
  Ru  Ru3  1  0.25000119  0.24999831  0.25000121  1.0
