# generated using pymatgen
data_NbTc2H
_symmetry_space_group_name_H-M   'P 1'
_cell_length_a   4.24853134
_cell_length_b   5.21275568
_cell_length_c   2.53967047
_cell_angle_alpha   61.16785812
_cell_angle_beta   68.00647736
_cell_angle_gamma   49.80104828
_symmetry_Int_Tables_number   1
_chemical_formula_structural   NbTc2H
_chemical_formula_sum   'Nb1 Tc2 H1'
_cell_volume   37.46635287
_cell_formula_units_Z   1
loop_
 _symmetry_equiv_pos_site_id
 _symmetry_equiv_pos_as_xyz
  1  'x, y, z'
loop_
 _atom_site_type_symbol
 _atom_site_label
 _atom_site_symmetry_multiplicity
 _atom_site_fract_x
 _atom_site_fract_y
 _atom_site_fract_z
 _atom_site_occupancy
  Nb  Nb1  1  0.25125071  0.12519491  0.00000000  1.0
  Tc  Tc1  1  0.00000000  0.00000000  0.00000000  1.0
  Tc  Tc2  1  0.65916061  0.56731498  0.68542784  1.0
  H  H1  1  0.72267109  0.92245591  0.86567688  1.0
