# generated using pymatgen
data_NdCo5
_symmetry_space_group_name_H-M   'P 1'
_cell_length_a   3.31008148
_cell_length_b   3.14357877
_cell_length_c   2.39670515
_cell_angle_alpha   88.18764496
_cell_angle_beta   102.88369751
_cell_angle_gamma   117.24761963
_symmetry_Int_Tables_number   1
_chemical_formula_structural   NdCo5
_chemical_formula_sum   'Nd1 Co5'
_cell_volume   21.54187723
_cell_formula_units_Z   1
loop_
 _symmetry_equiv_pos_site_id
 _symmetry_equiv_pos_as_xyz
  1  'x, y, z'
loop_
 _atom_site_type_symbol
 _atom_site_label
 _atom_site_symmetry_multiplicity
 _atom_site_fract_x
 _atom_site_fract_y
 _atom_site_fract_z
 _atom_site_occupancy
  Nd  Nd1  1  0.00000000  0.00000000  0.00000000  1.0
  Co  Co1  1  0.00000000  0.74555868  0.67451859  1.0
  Co  Co2  1  0.26010844  0.58427256  0.00000000  1.0
  Co  Co3  1  0.78028172  0.20641559  0.00000000  1.0
  Co  Co4  1  0.28338879  0.00000000  0.46993160  1.0
  Co  Co5  1  0.66382396  0.59975535  0.44290552  1.0
