# generated using pymatgen
data_Ni2B3
_symmetry_space_group_name_H-M   'P 1'
_cell_length_a   1.80367494
_cell_length_b   2.27187586
_cell_length_c   2.46066999
_cell_angle_alpha   106.56204987
_cell_angle_beta   114.29666138
_cell_angle_gamma   86.97914886
_symmetry_Int_Tables_number   1
_chemical_formula_structural   Ni2B3
_chemical_formula_sum   'Ni2 B3'
_cell_volume   8.78466916
_cell_formula_units_Z   1
loop_
 _symmetry_equiv_pos_site_id
 _symmetry_equiv_pos_as_xyz
  1  'x, y, z'
loop_
 _atom_site_type_symbol
 _atom_site_label
 _atom_site_symmetry_multiplicity
 _atom_site_fract_x
 _atom_site_fract_y
 _atom_site_fract_z
 _atom_site_occupancy
  Ni  Ni1  1  0.11950591  0.90150189  0.12511680  1.0
  Ni  Ni2  1  0.74171180  0.33665234  0.73536843  1.0
  B  B1  1  0.43418360  0.84556758  0.94380724  1.0
  B  B2  1  0.59998393  0.32339951  0.20577544  1.0
  B  B3  1  0.00000000  0.00000000  0.00000000  1.0
