# generated using pymatgen
data_Ni2B
_symmetry_space_group_name_H-M   'P 1'
_cell_length_a   3.31297851
_cell_length_b   2.75849915
_cell_length_c   2.01701403
_cell_angle_alpha   117.83779144
_cell_angle_beta   113.80487061
_cell_angle_gamma   114.29099274
_symmetry_Int_Tables_number   1
_chemical_formula_structural   Ni2B
_chemical_formula_sum   'Ni4 B2'
_cell_volume   10.00721573
_cell_formula_units_Z   2
loop_
 _symmetry_equiv_pos_site_id
 _symmetry_equiv_pos_as_xyz
  1  'x, y, z'
loop_
 _atom_site_type_symbol
 _atom_site_label
 _atom_site_symmetry_multiplicity
 _atom_site_fract_x
 _atom_site_fract_y
 _atom_site_fract_z
 _atom_site_occupancy
  Ni  Ni1  1  0.97599280  0.61015815  0.00000000  1.0
  Ni  Ni2  1  0.11717013  0.00000000  0.26747531  1.0
  Ni  Ni3  1  0.49576658  0.90831530  0.00000000  1.0
  Ni  Ni4  1  0.49938884  0.80001712  0.35735673  1.0
  B  B1  1  0.48916963  0.00000000  0.54165435  1.0
  B  B2  1  0.00000000  0.43595713  0.50182682  1.0
