# generated using pymatgen
data_NiP2Ru
_symmetry_space_group_name_H-M   'P 1'
_cell_length_a   4.15535500
_cell_length_b   4.15535484
_cell_length_c   4.15535438
_cell_angle_alpha   60.00026625
_cell_angle_beta   60.00027844
_cell_angle_gamma   60.00027204
_symmetry_Int_Tables_number   1
_chemical_formula_structural   NiP2Ru
_chemical_formula_sum   'Ni1 P2 Ru1'
_cell_volume   50.73550625
_cell_formula_units_Z   1
loop_
 _symmetry_equiv_pos_site_id
 _symmetry_equiv_pos_as_xyz
  1  'x, y, z'
loop_
 _atom_site_type_symbol
 _atom_site_label
 _atom_site_symmetry_multiplicity
 _atom_site_fract_x
 _atom_site_fract_y
 _atom_site_fract_z
 _atom_site_occupancy
  Ni  Ni0  1  0.24999921  0.24999920  0.24999922  1.0
  P  P1  1  0.50000056  0.50000057  0.50000055  1.0
  P  P2  1  0.00000022  0.00000021  0.00000021  1.0
  Ru  Ru3  1  0.75000001  0.75000000  0.75000001  1.0
