# generated using pymatgen
data_NiRh
_symmetry_space_group_name_H-M   'P 1'
_cell_length_a   2.31013298
_cell_length_b   3.15987825
_cell_length_c   5.23415422
_cell_angle_alpha   152.90092468
_cell_angle_beta   145.62852478
_cell_angle_gamma   53.62643051
_symmetry_Int_Tables_number   1
_chemical_formula_structural   NiRh
_chemical_formula_sum   'Ni2 Rh2'
_cell_volume   8.19903944
_cell_formula_units_Z   2
loop_
 _symmetry_equiv_pos_site_id
 _symmetry_equiv_pos_as_xyz
  1  'x, y, z'
loop_
 _atom_site_type_symbol
 _atom_site_label
 _atom_site_symmetry_multiplicity
 _atom_site_fract_x
 _atom_site_fract_y
 _atom_site_fract_z
 _atom_site_occupancy
  Ni  Ni1  1  0.57616872  0.81145573  0.00000000  1.0
  Ni  Ni2  1  0.45983145  0.20584157  0.00000000  1.0
  Rh  Rh1  1  0.00000000  0.18281168  0.00000000  1.0
  Rh  Rh2  1  0.00000000  0.00000000  0.00000000  1.0
