# generated using pymatgen
data_NpPt3
_symmetry_space_group_name_H-M   'P 1'
_cell_length_a   3.73266768
_cell_length_b   2.79383755
_cell_length_c   1.77534556
_cell_angle_alpha   111.01600647
_cell_angle_beta   106.33386230
_cell_angle_gamma   78.91508484
_symmetry_Int_Tables_number   1
_chemical_formula_structural   NpPt3
_chemical_formula_sum   'Np1 Pt3'
_cell_volume   16.49847633
_cell_formula_units_Z   1
loop_
 _symmetry_equiv_pos_site_id
 _symmetry_equiv_pos_as_xyz
  1  'x, y, z'
loop_
 _atom_site_type_symbol
 _atom_site_label
 _atom_site_symmetry_multiplicity
 _atom_site_fract_x
 _atom_site_fract_y
 _atom_site_fract_z
 _atom_site_occupancy
  Np  Np1  1  0.00000000  0.00000000  0.00000000  1.0
  Pt  Pt1  1  0.00000000  0.34996715  0.47873628  1.0
  Pt  Pt2  1  0.58923614  0.53423667  0.00000000  1.0
  Pt  Pt3  1  0.55605042  0.00000000  0.31411600  1.0
