# generated using pymatgen
data_PIr2
_symmetry_space_group_name_H-M   'P 1'
_cell_length_a   3.27376795
_cell_length_b   2.57179999
_cell_length_c   3.42333722
_cell_angle_alpha   61.14842224
_cell_angle_beta   54.17329407
_cell_angle_gamma   47.64325333
_symmetry_Int_Tables_number   1
_chemical_formula_structural   PIr2
_chemical_formula_sum   'P1 Ir2'
_cell_volume   17.08096143
_cell_formula_units_Z   1
loop_
 _symmetry_equiv_pos_site_id
 _symmetry_equiv_pos_as_xyz
  1  'x, y, z'
loop_
 _atom_site_type_symbol
 _atom_site_label
 _atom_site_symmetry_multiplicity
 _atom_site_fract_x
 _atom_site_fract_y
 _atom_site_fract_z
 _atom_site_occupancy
  P  P1  1  0.00000000  0.00000000  0.00000000  1.0
  Ir  Ir1  1  0.74773091  0.82190228  0.64893955  1.0
  Ir  Ir2  1  0.34529084  0.24951917  0.31185192  1.0
