# generated using pymatgen
data_PIr
_symmetry_space_group_name_H-M   'P 1'
_cell_length_a   3.45467353
_cell_length_b   2.14644814
_cell_length_c   2.64681506
_cell_angle_alpha   63.98411179
_cell_angle_beta   69.78185272
_cell_angle_gamma   72.78089142
_symmetry_Int_Tables_number   1
_chemical_formula_structural   PIr
_chemical_formula_sum   'P1 Ir1'
_cell_volume   16.30673546
_cell_formula_units_Z   1
loop_
 _symmetry_equiv_pos_site_id
 _symmetry_equiv_pos_as_xyz
  1  'x, y, z'
loop_
 _atom_site_type_symbol
 _atom_site_label
 _atom_site_symmetry_multiplicity
 _atom_site_fract_x
 _atom_site_fract_y
 _atom_site_fract_z
 _atom_site_occupancy
  P  P1  1  0.00000000  0.00000000  0.00000000  1.0
  Ir  Ir1  1  0.82790303  0.66373473  0.73835683  1.0
