# generated using pymatgen
data_PrB2Ir3
_symmetry_space_group_name_H-M   'P 1'
_cell_length_a   4.58296394
_cell_length_b   3.66742468
_cell_length_c   1.75488019
_cell_angle_alpha   102.30403137
_cell_angle_beta   104.27806091
_cell_angle_gamma   110.59552765
_symmetry_Int_Tables_number   1
_chemical_formula_structural   PrB2Ir3
_chemical_formula_sum   'Pr1 B2 Ir3'
_cell_volume   25.25346856
_cell_formula_units_Z   1
loop_
 _symmetry_equiv_pos_site_id
 _symmetry_equiv_pos_as_xyz
  1  'x, y, z'
loop_
 _atom_site_type_symbol
 _atom_site_label
 _atom_site_symmetry_multiplicity
 _atom_site_fract_x
 _atom_site_fract_y
 _atom_site_fract_z
 _atom_site_occupancy
  Pr  Pr1  1  0.00000000  0.00000000  0.00000000  1.0
  B  B1  1  0.63654971  0.18795842  0.00000000  1.0
  B  B2  1  0.16898954  0.59102958  0.00000000  1.0
  Ir  Ir1  1  0.34212914  0.54323763  0.37540990  1.0
  Ir  Ir2  1  0.38967937  0.00000000  0.43877423  1.0
  Ir  Ir3  1  0.15669614  0.34991720  0.29469490  1.0
