# generated using pymatgen
data_PrBiAu2
_symmetry_space_group_name_H-M   'P 1'
_cell_length_a   3.84154701
_cell_length_b   4.83458567
_cell_length_c   4.53579760
_cell_angle_alpha   61.49507523
_cell_angle_beta   59.44626617
_cell_angle_gamma   56.61661148
_symmetry_Int_Tables_number   1
_chemical_formula_structural   PrBiAu2
_chemical_formula_sum   'Pr1 Bi1 Au2'
_cell_volume   58.24430758
_cell_formula_units_Z   1
loop_
 _symmetry_equiv_pos_site_id
 _symmetry_equiv_pos_as_xyz
  1  'x, y, z'
loop_
 _atom_site_type_symbol
 _atom_site_label
 _atom_site_symmetry_multiplicity
 _atom_site_fract_x
 _atom_site_fract_y
 _atom_site_fract_z
 _atom_site_occupancy
  Pr  Pr1  1  0.00000000  0.00000000  0.00000000  1.0
  Bi  Bi1  1  0.53307194  0.49674103  0.61842024  1.0
  Au  Au1  1  0.75020921  0.51078677  0.71854293  1.0
  Au  Au2  1  0.19675475  0.31324244  0.21671203  1.0
