# generated using pymatgen
data_Pt3Rh
_symmetry_space_group_name_H-M   'P 1'
_cell_length_a   6.80150223
_cell_length_b   4.65433216
_cell_length_c   5.68574476
_cell_angle_alpha   144.93043518
_cell_angle_beta   140.93464661
_cell_angle_gamma   70.89497375
_symmetry_Int_Tables_number   1
_chemical_formula_structural   Pt3Rh
_chemical_formula_sum   'Pt3 Rh1'
_cell_volume   34.22000602
_cell_formula_units_Z   1
loop_
 _symmetry_equiv_pos_site_id
 _symmetry_equiv_pos_as_xyz
  1  'x, y, z'
loop_
 _atom_site_type_symbol
 _atom_site_label
 _atom_site_symmetry_multiplicity
 _atom_site_fract_x
 _atom_site_fract_y
 _atom_site_fract_z
 _atom_site_occupancy
  Pt  Pt1  1  0.75489211  0.39776760  0.47714633  1.0
  Pt  Pt2  1  0.15380755  0.57737726  0.62076783  1.0
  Pt  Pt3  1  0.26721704  0.27786320  0.00000000  1.0
  Rh  Rh1  1  0.00000000  0.00000000  0.00000000  1.0
