# generated using pymatgen
data_PtO2
_symmetry_space_group_name_H-M   'P 1'
_cell_length_a   4.78391790
_cell_length_b   3.55768609
_cell_length_c   5.28189707
_cell_angle_alpha   60.17938995
_cell_angle_beta   57.90833664
_cell_angle_gamma   55.66467667
_symmetry_Int_Tables_number   1
_chemical_formula_structural   PtO2
_chemical_formula_sum   'Pt1 O2'
_cell_volume   60.32756631
_cell_formula_units_Z   1
loop_
 _symmetry_equiv_pos_site_id
 _symmetry_equiv_pos_as_xyz
  1  'x, y, z'
loop_
 _atom_site_type_symbol
 _atom_site_label
 _atom_site_symmetry_multiplicity
 _atom_site_fract_x
 _atom_site_fract_y
 _atom_site_fract_z
 _atom_site_occupancy
  Pt  Pt1  1  0.00000000  0.00000000  0.00000000  1.0
  O  O1  1  0.69834733  0.82549465  0.74441707  1.0
  O  O2  1  0.37008059  0.29960120  0.25018454  1.0
