# generated using pymatgen
data_PtRh4
_symmetry_space_group_name_H-M   'P 1'
_cell_length_a   1.67595541
_cell_length_b   2.86893344
_cell_length_c   4.60861921
_cell_angle_alpha   62.53274918
_cell_angle_beta   51.36614609
_cell_angle_gamma   112.88534546
_symmetry_Int_Tables_number   1
_chemical_formula_structural   PtRh4
_chemical_formula_sum   'Pt1 Rh4'
_cell_volume   3.30477399
_cell_formula_units_Z   1
loop_
 _symmetry_equiv_pos_site_id
 _symmetry_equiv_pos_as_xyz
  1  'x, y, z'
loop_
 _atom_site_type_symbol
 _atom_site_label
 _atom_site_symmetry_multiplicity
 _atom_site_fract_x
 _atom_site_fract_y
 _atom_site_fract_z
 _atom_site_occupancy
  Pt  Pt1  1  0.00000000  0.00000000  0.96290708  1.0
  Rh  Rh1  1  0.00000000  0.39922845  0.56832910  1.0
  Rh  Rh2  1  0.42101410  0.00000000  0.52644002  1.0
  Rh  Rh3  1  0.83108819  0.44860446  0.00000000  1.0
  Rh  Rh4  1  0.00000000  0.00000000  0.00000000  1.0
