# generated using pymatgen
data_PtRh3
_symmetry_space_group_name_H-M   'P 1'
_cell_length_a   2.48460174
_cell_length_b   3.81035709
_cell_length_c   2.21034765
_cell_angle_alpha   97.42649841
_cell_angle_beta   101.51561737
_cell_angle_gamma   111.67942810
_symmetry_Int_Tables_number   1
_chemical_formula_structural   PtRh3
_chemical_formula_sum   'Pt1 Rh3'
_cell_volume   18.57466546
_cell_formula_units_Z   1
loop_
 _symmetry_equiv_pos_site_id
 _symmetry_equiv_pos_as_xyz
  1  'x, y, z'
loop_
 _atom_site_type_symbol
 _atom_site_label
 _atom_site_symmetry_multiplicity
 _atom_site_fract_x
 _atom_site_fract_y
 _atom_site_fract_z
 _atom_site_occupancy
  Pt  Pt1  1  0.00000000  0.00000000  0.84770423  1.0
  Rh  Rh1  1  0.00000000  0.54538369  0.44589639  1.0
  Rh  Rh2  1  0.65337396  0.00000000  0.53254855  1.0
  Rh  Rh3  1  0.62837744  0.16751713  0.00000000  1.0
