# generated using pymatgen
data_Re3Ni
_symmetry_space_group_name_H-M   'P 1'
_cell_length_a   3.13669515
_cell_length_b   3.20050478
_cell_length_c   3.82217264
_cell_angle_alpha   82.13348389
_cell_angle_beta   87.60119629
_cell_angle_gamma   130.29365540
_symmetry_Int_Tables_number   1
_chemical_formula_structural   Re3Ni
_chemical_formula_sum   'Re6 Ni2'
_cell_volume   28.55673205
_cell_formula_units_Z   2
loop_
 _symmetry_equiv_pos_site_id
 _symmetry_equiv_pos_as_xyz
  1  'x, y, z'
loop_
 _atom_site_type_symbol
 _atom_site_label
 _atom_site_symmetry_multiplicity
 _atom_site_fract_x
 _atom_site_fract_y
 _atom_site_fract_z
 _atom_site_occupancy
  Re  Re1  1  0.75769126  0.18079293  0.80707246  1.0
  Re  Re2  1  0.39589676  0.15163156  0.82353830  1.0
  Re  Re3  1  0.76681036  0.54917443  0.84676158  1.0
  Re  Re4  1  0.00000000  0.79531330  0.17026797  1.0
  Re  Re5  1  0.62749875  0.87012792  0.29463190  1.0
  Re  Re6  1  0.23291922  0.53318834  0.48643127  1.0
  Ni  Ni1  1  0.50691855  0.29428548  0.23261431  1.0
  Ni  Ni2  1  0.68047565  0.83445817  0.30103359  1.0
