# generated using pymatgen
data_Re3Pt
_symmetry_space_group_name_H-M   'P 1'
_cell_length_a   3.18244982
_cell_length_b   6.44103193
_cell_length_c   3.81699586
_cell_angle_alpha   85.76511383
_cell_angle_beta   95.19851685
_cell_angle_gamma   118.75401306
_symmetry_Int_Tables_number   1
_chemical_formula_structural   Re3Pt
_chemical_formula_sum   'Re6 Pt2'
_cell_volume   68.27084006
_cell_formula_units_Z   2
loop_
 _symmetry_equiv_pos_site_id
 _symmetry_equiv_pos_as_xyz
  1  'x, y, z'
loop_
 _atom_site_type_symbol
 _atom_site_label
 _atom_site_symmetry_multiplicity
 _atom_site_fract_x
 _atom_site_fract_y
 _atom_site_fract_z
 _atom_site_occupancy
  Re  Re1  1  0.14334428  0.38601217  0.20312625  1.0
  Re  Re2  1  0.73501736  0.87293452  0.16815689  1.0
  Re  Re3  1  0.14568225  0.81030333  0.35255235  1.0
  Re  Re4  1  0.88543642  0.75302577  0.80944109  1.0
  Re  Re5  1  0.30871511  0.00000000  0.68516892  1.0
  Re  Re6  1  0.64737558  0.00000000  0.79242545  1.0
  Pt  Pt1  1  0.30674955  0.72132206  0.50474375  1.0
  Pt  Pt2  1  0.55267316  0.20959464  0.41635823  1.0
