# generated using pymatgen
data_Re3W
_symmetry_space_group_name_H-M   'P 1'
_cell_length_a   3.42444849
_cell_length_b   2.30063796
_cell_length_c   1.80028760
_cell_angle_alpha   137.72651672
_cell_angle_beta   141.54107666
_cell_angle_gamma   66.46813965
_symmetry_Int_Tables_number   1
_chemical_formula_structural   Re3W
_chemical_formula_sum   'Re3 W1'
_cell_volume   5.35556404
_cell_formula_units_Z   1
loop_
 _symmetry_equiv_pos_site_id
 _symmetry_equiv_pos_as_xyz
  1  'x, y, z'
loop_
 _atom_site_type_symbol
 _atom_site_label
 _atom_site_symmetry_multiplicity
 _atom_site_fract_x
 _atom_site_fract_y
 _atom_site_fract_z
 _atom_site_occupancy
  Re  Re1  1  0.86854416  0.18375376  0.30175549  1.0
  Re  Re2  1  0.20431137  0.69993693  0.42831030  1.0
  Re  Re3  1  0.60985065  0.35319650  0.00000000  1.0
  W  W1  1  0.00000000  0.00000000  0.00000000  1.0
