# generated using pymatgen
data_Re
_symmetry_space_group_name_H-M   'P 1'
_cell_length_a   2.89093995
_cell_length_b   5.25765610
_cell_length_c   2.37919283
_cell_angle_alpha   91.21116638
_cell_angle_beta   90.84975433
_cell_angle_gamma   75.57300568
_symmetry_Int_Tables_number   1
_chemical_formula_structural   Re
_chemical_formula_sum   Re3
_cell_volume   35.01281171
_cell_formula_units_Z   3
loop_
 _symmetry_equiv_pos_site_id
 _symmetry_equiv_pos_as_xyz
  1  'x, y, z'
loop_
 _atom_site_type_symbol
 _atom_site_label
 _atom_site_symmetry_multiplicity
 _atom_site_fract_x
 _atom_site_fract_y
 _atom_site_fract_z
 _atom_site_occupancy
  Re  Re1  1  0.64097619  0.44223717  0.00000000  1.0
  Re  Re2  1  0.37148964  0.00000000  0.57241219  1.0
  Re  Re3  1  0.00000000  0.37165207  0.55808401  1.0
