# generated using pymatgen
data_ReB2
_symmetry_space_group_name_H-M   'P 1'
_cell_length_a   3.67898107
_cell_length_b   2.11691976
_cell_length_c   9.18728733
_cell_angle_alpha   97.27751923
_cell_angle_beta   94.17772675
_cell_angle_gamma   128.27876282
_symmetry_Int_Tables_number   1
_chemical_formula_structural   ReB2
_chemical_formula_sum   'Re2 B4'
_cell_volume   54.65374415
_cell_formula_units_Z   2
loop_
 _symmetry_equiv_pos_site_id
 _symmetry_equiv_pos_as_xyz
  1  'x, y, z'
loop_
 _atom_site_type_symbol
 _atom_site_label
 _atom_site_symmetry_multiplicity
 _atom_site_fract_x
 _atom_site_fract_y
 _atom_site_fract_z
 _atom_site_occupancy
  Re  Re1  1  0.81834936  0.29344910  0.62611020  1.0
  Re  Re2  1  0.37567571  0.69774985  0.36500451  1.0
  B  B1  1  0.79736847  0.49196208  0.31783670  1.0
  B  B2  1  0.56961823  0.59272307  0.92520189  1.0
  B  B3  1  0.67109215  0.18943024  0.16045430  1.0
  B  B4  1  0.18716669  0.69231623  0.36109638  1.0
