# generated using pymatgen
data_ReMoH2
_symmetry_space_group_name_H-M   'P 1'
_cell_length_a   3.41764760
_cell_length_b   2.69245315
_cell_length_c   3.97022176
_cell_angle_alpha   60.46052933
_cell_angle_beta   54.83038330
_cell_angle_gamma   52.58618546
_symmetry_Int_Tables_number   1
_chemical_formula_structural   ReMoH2
_chemical_formula_sum   'Re1 Mo1 H2'
_cell_volume   23.13722527
_cell_formula_units_Z   1
loop_
 _symmetry_equiv_pos_site_id
 _symmetry_equiv_pos_as_xyz
  1  'x, y, z'
loop_
 _atom_site_type_symbol
 _atom_site_label
 _atom_site_symmetry_multiplicity
 _atom_site_fract_x
 _atom_site_fract_y
 _atom_site_fract_z
 _atom_site_occupancy
  Re  Re1  1  0.65748292  0.73254812  0.77229822  1.0
  Mo  Mo1  1  0.50999451  0.23013064  0.18633944  1.0
  H  H1  1  0.00000000  0.00000000  0.00000000  1.0
  H  H2  1  0.41890898  0.33354858  0.27896476  1.0
