# generated using pymatgen
data_ReN
_symmetry_space_group_name_H-M   'P 1'
_cell_length_a   3.78533411
_cell_length_b   4.40729380
_cell_length_c   2.80073071
_cell_angle_alpha   94.51657104
_cell_angle_beta   79.20631409
_cell_angle_gamma   104.15870667
_symmetry_Int_Tables_number   1
_chemical_formula_structural   ReN
_chemical_formula_sum   'Re3 N3'
_cell_volume   44.47723356
_cell_formula_units_Z   3
loop_
 _symmetry_equiv_pos_site_id
 _symmetry_equiv_pos_as_xyz
  1  'x, y, z'
loop_
 _atom_site_type_symbol
 _atom_site_label
 _atom_site_symmetry_multiplicity
 _atom_site_fract_x
 _atom_site_fract_y
 _atom_site_fract_z
 _atom_site_occupancy
  Re  Re1  1  0.53129137  0.44602600  0.00000000  1.0
  Re  Re2  1  0.43226328  0.00000000  0.65994018  1.0
  Re  Re3  1  0.00000000  0.58779317  0.65060079  1.0
  N  N1  1  0.10007736  0.00000000  0.49799973  1.0
  N  N2  1  0.00000000  0.61914617  0.00000000  1.0
  N  N3  1  0.50574231  0.00000000  0.00000000  1.0
