# generated using pymatgen
data_Rh3W
_symmetry_space_group_name_H-M   'P 1'
_cell_length_a   3.41536856
_cell_length_b   4.83382034
_cell_length_c   3.13917351
_cell_angle_alpha   77.86354828
_cell_angle_beta   75.94897461
_cell_angle_gamma   129.41311646
_symmetry_Int_Tables_number   1
_chemical_formula_structural   Rh3W
_chemical_formula_sum   'Rh6 W2'
_cell_volume   33.94196661
_cell_formula_units_Z   2
loop_
 _symmetry_equiv_pos_site_id
 _symmetry_equiv_pos_as_xyz
  1  'x, y, z'
loop_
 _atom_site_type_symbol
 _atom_site_label
 _atom_site_symmetry_multiplicity
 _atom_site_fract_x
 _atom_site_fract_y
 _atom_site_fract_z
 _atom_site_occupancy
  Rh  Rh1  1  0.82563448  0.76597911  0.14322093  1.0
  Rh  Rh2  1  0.11118266  0.86747420  0.75923967  1.0
  Rh  Rh3  1  0.58687162  0.87942803  0.80932987  1.0
  Rh  Rh4  1  0.45555836  0.13738033  0.17227173  1.0
  Rh  Rh5  1  0.85298377  0.13635081  0.16177058  1.0
  Rh  Rh6  1  0.00000000  0.48564771  0.74743813  1.0
  W  W1  1  0.40588486  0.46215528  0.27815157  1.0
  W  W2  1  0.75651789  0.23790044  0.76784730  1.0
