# generated using pymatgen
data_Ru2W
_symmetry_space_group_name_H-M   'P 1'
_cell_length_a   3.88614345
_cell_length_b   5.78959942
_cell_length_c   4.84977818
_cell_angle_alpha   84.13758087
_cell_angle_beta   82.77532196
_cell_angle_gamma   132.62319946
_symmetry_Int_Tables_number   1
_chemical_formula_structural   Ru2W
_chemical_formula_sum   'Ru6 W3'
_cell_volume   76.98611672
_cell_formula_units_Z   3
loop_
 _symmetry_equiv_pos_site_id
 _symmetry_equiv_pos_as_xyz
  1  'x, y, z'
loop_
 _atom_site_type_symbol
 _atom_site_label
 _atom_site_symmetry_multiplicity
 _atom_site_fract_x
 _atom_site_fract_y
 _atom_site_fract_z
 _atom_site_occupancy
  Ru  Ru1  1  0.00000000  0.30746090  0.44493836  1.0
  Ru  Ru2  1  0.63599718  0.87069774  0.21777055  1.0
  Ru  Ru3  1  0.28804952  0.89376950  0.60939640  1.0
  Ru  Ru4  1  0.88500470  0.63385248  0.70499074  1.0
  Ru  Ru5  1  0.54868883  0.24204627  0.60403866  1.0
  Ru  Ru6  1  0.86181378  0.14599895  0.69889551  1.0
  W  W1  1  0.28059888  0.65885776  0.79087937  1.0
  W  W2  1  0.74819243  0.31109095  0.45490915  1.0
  W  W3  1  0.00000000  0.00000000  0.00000000  1.0
