# generated using pymatgen
data_Ru3W
_symmetry_space_group_name_H-M   'P 1'
_cell_length_a   2.13924932
_cell_length_b   4.65380621
_cell_length_c   5.41440678
_cell_angle_alpha   72.74720001
_cell_angle_beta   72.79428101
_cell_angle_gamma   126.97145844
_symmetry_Int_Tables_number   1
_chemical_formula_structural   Ru3W
_chemical_formula_sum   'Ru6 W2'
_cell_volume   32.22114514
_cell_formula_units_Z   2
loop_
 _symmetry_equiv_pos_site_id
 _symmetry_equiv_pos_as_xyz
  1  'x, y, z'
loop_
 _atom_site_type_symbol
 _atom_site_label
 _atom_site_symmetry_multiplicity
 _atom_site_fract_x
 _atom_site_fract_y
 _atom_site_fract_z
 _atom_site_occupancy
  Ru  Ru1  1  0.15530008  0.14728796  0.12450716  1.0
  Ru  Ru2  1  0.50956649  0.87651473  0.14409387  1.0
  Ru  Ru3  1  0.00000000  0.78160608  0.14739916  1.0
  Ru  Ru4  1  0.69411665  0.75000906  0.68288302  1.0
  Ru  Ru5  1  0.23967457  0.24475154  0.46699527  1.0
  Ru  Ru6  1  0.89229333  0.23663333  0.68311805  1.0
  W  W1  1  0.41891971  0.30839145  0.79763913  1.0
  W  W2  1  0.73328632  0.16214675  0.51782721  1.0
