# generated using pymatgen
data_RuN2
_symmetry_space_group_name_H-M   'P 1'
_cell_length_a   2.01607537
_cell_length_b   3.81362510
_cell_length_c   2.98057294
_cell_angle_alpha   104.65338898
_cell_angle_beta   106.66970825
_cell_angle_gamma   94.26613617
_symmetry_Int_Tables_number   1
_chemical_formula_structural   RuN2
_chemical_formula_sum   'Ru2 N4'
_cell_volume   20.97048651
_cell_formula_units_Z   2
loop_
 _symmetry_equiv_pos_site_id
 _symmetry_equiv_pos_as_xyz
  1  'x, y, z'
loop_
 _atom_site_type_symbol
 _atom_site_label
 _atom_site_symmetry_multiplicity
 _atom_site_fract_x
 _atom_site_fract_y
 _atom_site_fract_z
 _atom_site_occupancy
  Ru  Ru1  1  0.00000000  0.00000000  0.00000000  1.0
  Ru  Ru2  1  0.44361323  0.83133316  0.29602817  1.0
  N  N1  1  0.50076854  0.34599024  0.91254264  1.0
  N  N2  1  0.10975534  0.00000000  0.15896153  1.0
  N  N3  1  0.71358246  0.52667987  0.00000000  1.0
  N  N4  1  0.00000000  0.92895663  0.72136295  1.0
