# generated using pymatgen
data_ScBIr3
_symmetry_space_group_name_H-M   'P 1'
_cell_length_a   2.41635013
_cell_length_b   4.50343132
_cell_length_c   5.40017986
_cell_angle_alpha   91.94705963
_cell_angle_beta   98.51247406
_cell_angle_gamma   98.17871094
_symmetry_Int_Tables_number   1
_chemical_formula_structural   ScBIr3
_chemical_formula_sum   'Sc1 B1 Ir3'
_cell_volume   57.43459901
_cell_formula_units_Z   1
loop_
 _symmetry_equiv_pos_site_id
 _symmetry_equiv_pos_as_xyz
  1  'x, y, z'
loop_
 _atom_site_type_symbol
 _atom_site_label
 _atom_site_symmetry_multiplicity
 _atom_site_fract_x
 _atom_site_fract_y
 _atom_site_fract_z
 _atom_site_occupancy
  Sc  Sc1  1  0.00000000  0.00000000  0.00000000  1.0
  B  B1  1  0.25967807  0.46588963  0.59835917  1.0
  Ir  Ir1  1  0.00000000  0.54894251  0.50332463  1.0
  Ir  Ir2  1  0.82085490  0.11588401  0.57937312  1.0
  Ir  Ir3  1  0.40311009  0.70607609  0.00000000  1.0
