# generated using pymatgen
data_ScBN2
_symmetry_space_group_name_H-M   'P 1'
_cell_length_a   2.86447483
_cell_length_b   2.86447337
_cell_length_c   4.85590313
_cell_angle_alpha   89.99999842
_cell_angle_beta   90.00002662
_cell_angle_gamma   120.00000632
_symmetry_Int_Tables_number   1
_chemical_formula_structural   ScBN2
_chemical_formula_sum   'Sc1 B1 N2'
_cell_volume   34.50566631
_cell_formula_units_Z   1
loop_
 _symmetry_equiv_pos_site_id
 _symmetry_equiv_pos_as_xyz
  1  'x, y, z'
loop_
 _atom_site_type_symbol
 _atom_site_label
 _atom_site_symmetry_multiplicity
 _atom_site_fract_x
 _atom_site_fract_y
 _atom_site_fract_z
 _atom_site_occupancy
  Sc  Sc0  1  0.99999997  0.99999998  0.49999989  1.0
  B  B1  1  0.99999995  0.00000016  0.99999975  1.0
  N  N2  1  0.33333333  0.66666667  0.20104669  1.0
  N  N3  1  0.66666667  0.33333333  0.79895368  1.0
