# generated using pymatgen
data_ScFeN2
_symmetry_space_group_name_H-M   'P 1'
_cell_length_a   3.02658311
_cell_length_b   3.02653970
_cell_length_c   5.05134616
_cell_angle_alpha   90.00368766
_cell_angle_beta   89.99959676
_cell_angle_gamma   120.00231917
_symmetry_Int_Tables_number   1
_chemical_formula_structural   ScFeN2
_chemical_formula_sum   'Sc1 Fe1 N2'
_cell_volume   40.07066880
_cell_formula_units_Z   1
loop_
 _symmetry_equiv_pos_site_id
 _symmetry_equiv_pos_as_xyz
  1  'x, y, z'
loop_
 _atom_site_type_symbol
 _atom_site_label
 _atom_site_symmetry_multiplicity
 _atom_site_fract_x
 _atom_site_fract_y
 _atom_site_fract_z
 _atom_site_occupancy
  Sc  Sc0  1  0.99999984  0.99999997  0.99999990  1.0
  Fe  Fe1  1  0.00000007  0.99999999  0.49999981  1.0
  N  N2  1  0.33333333  0.66666667  0.28039509  1.0
  N  N3  1  0.66666667  0.33333333  0.71960519  1.0
