# generated using pymatgen
data_ScMnN2
_symmetry_space_group_name_H-M   'P 1'
_cell_length_a   3.03506161
_cell_length_b   3.03506188
_cell_length_c   5.12988051
_cell_angle_alpha   89.99999325
_cell_angle_beta   90.00000757
_cell_angle_gamma   120.00000044
_symmetry_Int_Tables_number   1
_chemical_formula_structural   ScMnN2
_chemical_formula_sum   'Sc1 Mn1 N2'
_cell_volume   40.92351608
_cell_formula_units_Z   1
loop_
 _symmetry_equiv_pos_site_id
 _symmetry_equiv_pos_as_xyz
  1  'x, y, z'
loop_
 _atom_site_type_symbol
 _atom_site_label
 _atom_site_symmetry_multiplicity
 _atom_site_fract_x
 _atom_site_fract_y
 _atom_site_fract_z
 _atom_site_occupancy
  Sc  Sc0  1  0.00000001  0.00000010  0.00000001  1.0
  Mn  Mn1  1  0.99999998  0.99999992  0.50000001  1.0
  N  N2  1  0.33333333  0.66666667  0.27750990  1.0
  N  N3  1  0.66666667  0.33333333  0.72249009  1.0
