# generated using pymatgen
data_Si2HOs
_symmetry_space_group_name_H-M   'P 1'
_cell_length_a   5.04596806
_cell_length_b   3.75312877
_cell_length_c   4.56098461
_cell_angle_alpha   63.95985031
_cell_angle_beta   69.52053833
_cell_angle_gamma   65.77447510
_symmetry_Int_Tables_number   1
_chemical_formula_structural   Si2HOs
_chemical_formula_sum   'Si2 H1 Os1'
_cell_volume   69.23867167
_cell_formula_units_Z   1
loop_
 _symmetry_equiv_pos_site_id
 _symmetry_equiv_pos_as_xyz
  1  'x, y, z'
loop_
 _atom_site_type_symbol
 _atom_site_label
 _atom_site_symmetry_multiplicity
 _atom_site_fract_x
 _atom_site_fract_y
 _atom_site_fract_z
 _atom_site_occupancy
  Si  Si1  1  0.28749245  0.24751988  0.25896788  1.0
  Si  Si2  1  0.65286368  0.54454792  0.65847033  1.0
  H  H1  1  0.00000000  0.00000000  0.00000000  1.0
  Os  Os1  1  0.59213531  0.62449896  0.44139272  1.0
