# generated using pymatgen
data_Si2MoIr
_symmetry_space_group_name_H-M   'P 1'
_cell_length_a   4.27136128
_cell_length_b   4.27135544
_cell_length_c   4.27135687
_cell_angle_alpha   60.00002867
_cell_angle_beta   59.99998939
_cell_angle_gamma   59.99999061
_symmetry_Int_Tables_number   1
_chemical_formula_structural   Si2MoIr
_chemical_formula_sum   'Si2 Mo1 Ir1'
_cell_volume   55.10397238
_cell_formula_units_Z   1
loop_
 _symmetry_equiv_pos_site_id
 _symmetry_equiv_pos_as_xyz
  1  'x, y, z'
loop_
 _atom_site_type_symbol
 _atom_site_label
 _atom_site_symmetry_multiplicity
 _atom_site_fract_x
 _atom_site_fract_y
 _atom_site_fract_z
 _atom_site_occupancy
  Si  Si0  1  0.00000001  0.99999993  0.99999995  1.0
  Si  Si1  1  0.49999999  0.50000066  0.50000065  1.0
  Mo  Mo2  1  0.75000000  0.74999944  0.74999943  1.0
  Ir  Ir3  1  0.25000000  0.24999997  0.24999997  1.0
