# generated using pymatgen
data_Si2OsRu
_symmetry_space_group_name_H-M   'P 1'
_cell_length_a   4.19833379
_cell_length_b   4.19833375
_cell_length_c   4.19833383
_cell_angle_alpha   59.99999987
_cell_angle_beta   59.99999831
_cell_angle_gamma   59.99999890
_symmetry_Int_Tables_number   1
_chemical_formula_structural   Si2OsRu
_chemical_formula_sum   'Si2 Os1 Ru1'
_cell_volume   52.32580105
_cell_formula_units_Z   1
loop_
 _symmetry_equiv_pos_site_id
 _symmetry_equiv_pos_as_xyz
  1  'x, y, z'
loop_
 _atom_site_type_symbol
 _atom_site_label
 _atom_site_symmetry_multiplicity
 _atom_site_fract_x
 _atom_site_fract_y
 _atom_site_fract_z
 _atom_site_occupancy
  Si  Si0  1  0.25000000  0.25000001  0.25000000  1.0
  Si  Si1  1  0.75000000  0.75000001  0.75000000  1.0
  Os  Os2  1  0.50000000  0.50000000  0.50000000  1.0
  Ru  Ru3  1  0.00000000  0.99999998  0.99999999  1.0
