# generated using pymatgen
data_Si2TcOs
_symmetry_space_group_name_H-M   'P 1'
_cell_length_a   3.20034981
_cell_length_b   4.59391785
_cell_length_c   3.68864846
_cell_angle_alpha   57.29282379
_cell_angle_beta   61.03569412
_cell_angle_gamma   60.66609192
_symmetry_Int_Tables_number   1
_chemical_formula_structural   Si2TcOs
_chemical_formula_sum   'Si2 Tc1 Os1'
_cell_volume   37.95775952
_cell_formula_units_Z   1
loop_
 _symmetry_equiv_pos_site_id
 _symmetry_equiv_pos_as_xyz
  1  'x, y, z'
loop_
 _atom_site_type_symbol
 _atom_site_label
 _atom_site_symmetry_multiplicity
 _atom_site_fract_x
 _atom_site_fract_y
 _atom_site_fract_z
 _atom_site_occupancy
  Si  Si1  1  0.20069572  0.22633183  0.26903141  1.0
  Si  Si2  1  0.73515826  0.72022414  0.71758777  1.0
  Tc  Tc1  1  0.00000000  0.00000000  0.00000000  1.0
  Os  Os1  1  0.50472945  0.51595151  0.44169450  1.0
