# generated using pymatgen
data_SiHRu2
_symmetry_space_group_name_H-M   'P 1'
_cell_length_a   2.79390192
_cell_length_b   3.23526859
_cell_length_c   3.10889435
_cell_angle_alpha   60.73503494
_cell_angle_beta   61.01412201
_cell_angle_gamma   57.14508438
_symmetry_Int_Tables_number   1
_chemical_formula_structural   SiHRu2
_chemical_formula_sum   'Si1 H1 Ru2'
_cell_volume   19.64906441
_cell_formula_units_Z   1
loop_
 _symmetry_equiv_pos_site_id
 _symmetry_equiv_pos_as_xyz
  1  'x, y, z'
loop_
 _atom_site_type_symbol
 _atom_site_label
 _atom_site_symmetry_multiplicity
 _atom_site_fract_x
 _atom_site_fract_y
 _atom_site_fract_z
 _atom_site_occupancy
  Si  Si1  1  0.00000000  0.00000000  0.00000000  1.0
  H  H1  1  0.56613261  0.48855263  0.56216753  1.0
  Ru  Ru1  1  0.18752670  0.40131345  0.21371108  1.0
  Ru  Ru2  1  0.58563328  0.81504804  0.56796378  1.0
