# generated using pymatgen
data_SiO2
_symmetry_space_group_name_H-M   'P 1'
_cell_length_a   9.05986786
_cell_length_b   3.83200574
_cell_length_c   2.25782204
_cell_angle_alpha   90.56752777
_cell_angle_beta   94.47399139
_cell_angle_gamma   109.05560303
_symmetry_Int_Tables_number   1
_chemical_formula_structural   SiO2
_chemical_formula_sum   'Si2 O4'
_cell_volume   73.81265952
_cell_formula_units_Z   2
loop_
 _symmetry_equiv_pos_site_id
 _symmetry_equiv_pos_as_xyz
  1  'x, y, z'
loop_
 _atom_site_type_symbol
 _atom_site_label
 _atom_site_symmetry_multiplicity
 _atom_site_fract_x
 _atom_site_fract_y
 _atom_site_fract_z
 _atom_site_occupancy
  Si  Si1  1  0.61506212  0.56878710  0.34027904  1.0
  Si  Si2  1  0.00000000  0.00000000  0.00000000  1.0
  O  O1  1  0.80945545  0.66183931  0.00000000  1.0
  O  O2  1  0.36384088  0.81247479  0.43467960  1.0
  O  O3  1  0.16080999  0.28233129  0.00000000  1.0
  O  O4  1  0.91730750  0.30888909  0.62760812  1.0
