# generated using pymatgen
data_SiOs
_symmetry_space_group_name_H-M   'P 1'
_cell_length_a   2.08205509
_cell_length_b   1.81868827
_cell_length_c   2.53509021
_cell_angle_alpha   81.58883667
_cell_angle_beta   84.47451782
_cell_angle_gamma   106.13756561
_symmetry_Int_Tables_number   1
_chemical_formula_structural   SiOs
_chemical_formula_sum   'Si1 Os1'
_cell_volume   9.02674666
_cell_formula_units_Z   1
loop_
 _symmetry_equiv_pos_site_id
 _symmetry_equiv_pos_as_xyz
  1  'x, y, z'
loop_
 _atom_site_type_symbol
 _atom_site_label
 _atom_site_symmetry_multiplicity
 _atom_site_fract_x
 _atom_site_fract_y
 _atom_site_fract_z
 _atom_site_occupancy
  Si  Si1  1  0.47897807  0.41969028  0.58651340  1.0
  Os  Os1  1  0.00000000  0.00000000  0.00000000  1.0
