# generated using pymatgen
data_SiRh3
_symmetry_space_group_name_H-M   'P 1'
_cell_length_a   4.13449955
_cell_length_b   3.57045269
_cell_length_c   3.36304641
_cell_angle_alpha   134.74893188
_cell_angle_beta   131.85330200
_cell_angle_gamma   87.60892487
_symmetry_Int_Tables_number   1
_chemical_formula_structural   SiRh3
_chemical_formula_sum   'Si1 Rh3'
_cell_volume   15.43368182
_cell_formula_units_Z   1
loop_
 _symmetry_equiv_pos_site_id
 _symmetry_equiv_pos_as_xyz
  1  'x, y, z'
loop_
 _atom_site_type_symbol
 _atom_site_label
 _atom_site_symmetry_multiplicity
 _atom_site_fract_x
 _atom_site_fract_y
 _atom_site_fract_z
 _atom_site_occupancy
  Si  Si1  1  0.00000000  0.00000000  0.00000000  1.0
  Rh  Rh1  1  0.79855084  0.31979507  0.47993639  1.0
  Rh  Rh2  1  0.30902004  0.68203968  0.55390054  1.0
  Rh  Rh3  1  0.36491907  0.54703510  0.00000000  1.0
