# generated using pymatgen
data_SiRu2
_symmetry_space_group_name_H-M   'P 1'
_cell_length_a   2.47663760
_cell_length_b   3.19998837
_cell_length_c   4.62868929
_cell_angle_alpha   108.65139008
_cell_angle_beta   106.39550018
_cell_angle_gamma   89.43556213
_symmetry_Int_Tables_number   1
_chemical_formula_structural   SiRu2
_chemical_formula_sum   'Si4 Ru8'
_cell_volume   33.21269692
_cell_formula_units_Z   4
loop_
 _symmetry_equiv_pos_site_id
 _symmetry_equiv_pos_as_xyz
  1  'x, y, z'
loop_
 _atom_site_type_symbol
 _atom_site_label
 _atom_site_symmetry_multiplicity
 _atom_site_fract_x
 _atom_site_fract_y
 _atom_site_fract_z
 _atom_site_occupancy
  Si  Si1  1  0.38083196  0.86234629  0.34859747  1.0
  Si  Si2  1  0.86032993  0.25407952  0.57030636  1.0
  Si  Si3  1  0.24594411  0.34201169  0.16321731  1.0
  Si  Si4  1  0.81356806  0.73938179  0.94047594  1.0
  Ru  Ru1  1  0.89232850  0.15498397  0.32970026  1.0
  Ru  Ru2  1  0.23299161  0.92754054  0.79653502  1.0
  Ru  Ru3  1  0.63961184  0.63531178  0.18528488  1.0
  Ru  Ru4  1  0.28220347  0.31861216  0.61962140  1.0
  Ru  Ru5  1  0.28749865  0.28582144  0.48992032  1.0
  Ru  Ru6  1  0.71404308  0.37931237  0.43562800  1.0
  Ru  Ru7  1  0.00000000  0.42448509  0.00000000  1.0
  Ru  Ru8  1  0.71542531  0.00000000  0.92956102  1.0
