# generated using pymatgen
data_SiTc2W
_symmetry_space_group_name_H-M   'P 1'
_cell_length_a   2.95537496
_cell_length_b   2.40551662
_cell_length_c   2.10312033
_cell_angle_alpha   59.89958572
_cell_angle_beta   61.11311340
_cell_angle_gamma   73.31236267
_symmetry_Int_Tables_number   1
_chemical_formula_structural   SiTc2W
_chemical_formula_sum   'Si1 Tc2 W1'
_cell_volume   11.30590167
_cell_formula_units_Z   1
loop_
 _symmetry_equiv_pos_site_id
 _symmetry_equiv_pos_as_xyz
  1  'x, y, z'
loop_
 _atom_site_type_symbol
 _atom_site_label
 _atom_site_symmetry_multiplicity
 _atom_site_fract_x
 _atom_site_fract_y
 _atom_site_fract_z
 _atom_site_occupancy
  Si  Si1  1  0.32042971  0.47911912  0.50989074  1.0
  Tc  Tc1  1  0.44173285  0.21278122  0.21378911  1.0
  Tc  Tc2  1  0.69333333  0.51609397  0.71282536  1.0
  W  W1  1  0.00000000  0.00000000  0.00000000  1.0
