# generated using pymatgen
data_SmAl2
_symmetry_space_group_name_H-M   'P 1'
_cell_length_a   5.24202442
_cell_length_b   4.09361696
_cell_length_c   3.39640713
_cell_angle_alpha   62.42884445
_cell_angle_beta   61.36038589
_cell_angle_gamma   64.48136139
_symmetry_Int_Tables_number   1
_chemical_formula_structural   SmAl2
_chemical_formula_sum   'Sm2 Al4'
_cell_volume   54.61809885
_cell_formula_units_Z   2
loop_
 _symmetry_equiv_pos_site_id
 _symmetry_equiv_pos_as_xyz
  1  'x, y, z'
loop_
 _atom_site_type_symbol
 _atom_site_label
 _atom_site_symmetry_multiplicity
 _atom_site_fract_x
 _atom_site_fract_y
 _atom_site_fract_z
 _atom_site_occupancy
  Sm  Sm1  1  0.89735204  0.90057027  0.93140727  1.0
  Sm  Sm2  1  0.20658293  0.26271695  0.12925944  1.0
  Al  Al1  1  0.58256042  0.39335874  0.54076743  1.0
  Al  Al2  1  0.51520991  0.48616248  0.00000000  1.0
  Al  Al3  1  0.00000000  0.73739153  0.50282431  1.0
  Al  Al4  1  0.36930668  0.00000000  0.40421277  1.0
