# generated using pymatgen
data_SmB2Ir3
_symmetry_space_group_name_H-M   'P 1'
_cell_length_a   4.00412083
_cell_length_b   6.08558702
_cell_length_c   2.10692215
_cell_angle_alpha   68.49046326
_cell_angle_beta   81.15175629
_cell_angle_gamma   127.04499054
_symmetry_Int_Tables_number   1
_chemical_formula_structural   SmB2Ir3
_chemical_formula_sum   'Sm1 B2 Ir3'
_cell_volume   32.91442658
_cell_formula_units_Z   1
loop_
 _symmetry_equiv_pos_site_id
 _symmetry_equiv_pos_as_xyz
  1  'x, y, z'
loop_
 _atom_site_type_symbol
 _atom_site_label
 _atom_site_symmetry_multiplicity
 _atom_site_fract_x
 _atom_site_fract_y
 _atom_site_fract_z
 _atom_site_occupancy
  Sm  Sm1  1  0.00000000  0.00000000  0.00000000  1.0
  B  B1  1  0.71241367  0.22064576  0.00000000  1.0
  B  B2  1  0.37256569  0.66364992  0.00000000  1.0
  Ir  Ir1  1  0.16463327  0.34274387  0.44335106  1.0
  Ir  Ir2  1  0.29039270  0.00000000  0.52409768  1.0
  Ir  Ir3  1  0.00000000  0.54032439  0.71425331  1.0
