# generated using pymatgen
data_SmCo2
_symmetry_space_group_name_H-M   'P 1'
_cell_length_a   5.48700905
_cell_length_b   3.97187972
_cell_length_c   4.11312008
_cell_angle_alpha   52.81889343
_cell_angle_beta   56.95322418
_cell_angle_gamma   69.26094055
_symmetry_Int_Tables_number   1
_chemical_formula_structural   SmCo2
_chemical_formula_sum   'Sm2 Co4'
_cell_volume   59.82478360
_cell_formula_units_Z   2
loop_
 _symmetry_equiv_pos_site_id
 _symmetry_equiv_pos_as_xyz
  1  'x, y, z'
loop_
 _atom_site_type_symbol
 _atom_site_label
 _atom_site_symmetry_multiplicity
 _atom_site_fract_x
 _atom_site_fract_y
 _atom_site_fract_z
 _atom_site_occupancy
  Sm  Sm1  1  0.81083798  0.85791844  0.92796385  1.0
  Sm  Sm2  1  0.00000000  0.00000000  0.00000000  1.0
  Co  Co1  1  0.54550463  0.34728456  0.46758333  1.0
  Co  Co2  1  0.58640701  0.39787489  0.00000000  1.0
  Co  Co3  1  0.00000000  0.57744712  0.28032070  1.0
  Co  Co4  1  0.55422044  0.00000000  0.27588975  1.0
