# generated using pymatgen
data_SmIr5
_symmetry_space_group_name_H-M   'P 1'
_cell_length_a   4.36399603
_cell_length_b   7.29963827
_cell_length_c   2.82926822
_cell_angle_alpha   88.57071686
_cell_angle_beta   102.19958496
_cell_angle_gamma   117.69668579
_symmetry_Int_Tables_number   1
_chemical_formula_structural   SmIr5
_chemical_formula_sum   'Sm1 Ir5'
_cell_volume   77.71898723
_cell_formula_units_Z   1
loop_
 _symmetry_equiv_pos_site_id
 _symmetry_equiv_pos_as_xyz
  1  'x, y, z'
loop_
 _atom_site_type_symbol
 _atom_site_label
 _atom_site_symmetry_multiplicity
 _atom_site_fract_x
 _atom_site_fract_y
 _atom_site_fract_z
 _atom_site_occupancy
  Sm  Sm1  1  0.00000000  0.00000000  0.00000000  1.0
  Ir  Ir1  1  0.18051690  0.77440184  0.00000000  1.0
  Ir  Ir2  1  0.66142237  0.34933960  0.00000000  1.0
  Ir  Ir3  1  0.63174021  0.00000000  0.22649717  1.0
  Ir  Ir4  1  0.56639659  0.54906130  0.51101321  1.0
  Ir  Ir5  1  0.00000000  0.77359456  0.36667368  1.0
