# generated using pymatgen
data_SmIr3
_symmetry_space_group_name_H-M   'P 1'
_cell_length_a   3.27695584
_cell_length_b   2.94376469
_cell_length_c   2.88800812
_cell_angle_alpha   96.77132416
_cell_angle_beta   84.84048462
_cell_angle_gamma   92.99442291
_symmetry_Int_Tables_number   1
_chemical_formula_structural   SmIr3
_chemical_formula_sum   'Sm1 Ir3'
_cell_volume   27.52857144
_cell_formula_units_Z   1
loop_
 _symmetry_equiv_pos_site_id
 _symmetry_equiv_pos_as_xyz
  1  'x, y, z'
loop_
 _atom_site_type_symbol
 _atom_site_label
 _atom_site_symmetry_multiplicity
 _atom_site_fract_x
 _atom_site_fract_y
 _atom_site_fract_z
 _atom_site_occupancy
  Sm  Sm1  1  0.00000000  0.00000000  0.00000000  1.0
  Ir  Ir1  1  0.45562473  0.57067990  0.00000000  1.0
  Ir  Ir2  1  0.52263588  0.00000000  0.47050294  1.0
  Ir  Ir3  1  0.00000000  0.78567022  0.59232968  1.0
