# generated using pymatgen
data_SnN2
_symmetry_space_group_name_H-M   'P 1'
_cell_length_a   1.12561297
_cell_length_b   3.80374765
_cell_length_c   3.44405675
_cell_angle_alpha   83.26269531
_cell_angle_beta   80.04702759
_cell_angle_gamma   105.84246826
_symmetry_Int_Tables_number   1
_chemical_formula_structural   SnN2
_chemical_formula_sum   'Sn2 N4'
_cell_volume   13.76011209
_cell_formula_units_Z   2
loop_
 _symmetry_equiv_pos_site_id
 _symmetry_equiv_pos_as_xyz
  1  'x, y, z'
loop_
 _atom_site_type_symbol
 _atom_site_label
 _atom_site_symmetry_multiplicity
 _atom_site_fract_x
 _atom_site_fract_y
 _atom_site_fract_z
 _atom_site_occupancy
  Sn  Sn1  1  0.00000000  0.00000000  0.00000000  1.0
  Sn  Sn2  1  0.34574622  0.45504311  0.64772570  1.0
  N  N1  1  0.53566009  0.31933314  0.85986185  1.0
  N  N2  1  0.00000000  0.15067276  0.14977777  1.0
  N  N3  1  0.40575936  0.66638726  0.13388163  1.0
  N  N4  1  0.00000000  0.59963799  0.75253469  1.0
