# generated using pymatgen
data_Sr3(SnIr)4
_symmetry_space_group_name_H-M   'P 1'
_cell_length_a   8.13866615
_cell_length_b   7.47355604
_cell_length_c   6.47143650
_cell_angle_alpha   114.47694397
_cell_angle_beta   123.07525635
_cell_angle_gamma   117.74893951
_symmetry_Int_Tables_number   1
_chemical_formula_structural   Sr3(SnIr)4
_chemical_formula_sum   'Sr3 Sn4 Ir4'
_cell_volume   126.42726881
_cell_formula_units_Z   1
loop_
 _symmetry_equiv_pos_site_id
 _symmetry_equiv_pos_as_xyz
  1  'x, y, z'
loop_
 _atom_site_type_symbol
 _atom_site_label
 _atom_site_symmetry_multiplicity
 _atom_site_fract_x
 _atom_site_fract_y
 _atom_site_fract_z
 _atom_site_occupancy
  Sr  Sr1  1  0.00000000  0.47400713  0.50221926  1.0
  Sr  Sr2  1  0.45441604  0.00000000  0.29032430  1.0
  Sr  Sr3  1  0.57304150  0.59817207  0.00000000  1.0
  Sn  Sn1  1  0.00000000  0.83057272  0.00000000  1.0
  Sn  Sn2  1  0.36413890  0.00000000  0.00000000  1.0
  Sn  Sn3  1  0.10197708  0.00000000  0.68809378  1.0
  Sn  Sn4  1  0.53038812  0.44514698  0.65346372  1.0
  Ir  Ir1  1  0.15679494  0.16381282  0.74158788  1.0
  Ir  Ir2  1  0.75748432  0.00000000  0.00000000  1.0
  Ir  Ir3  1  0.12602283  0.38009807  0.30683455  1.0
  Ir  Ir4  1  0.00000000  0.91614848  0.00000000  1.0
