# generated using pymatgen
data_SrB2Ir3
_symmetry_space_group_name_H-M   'P 1'
_cell_length_a   3.82115912
_cell_length_b   6.20298338
_cell_length_c   3.76012897
_cell_angle_alpha   94.58106995
_cell_angle_beta   90.92171478
_cell_angle_gamma   127.79988861
_symmetry_Int_Tables_number   1
_chemical_formula_structural   SrB2Ir3
_chemical_formula_sum   'Sr1 B2 Ir3'
_cell_volume   69.95778693
_cell_formula_units_Z   1
loop_
 _symmetry_equiv_pos_site_id
 _symmetry_equiv_pos_as_xyz
  1  'x, y, z'
loop_
 _atom_site_type_symbol
 _atom_site_label
 _atom_site_symmetry_multiplicity
 _atom_site_fract_x
 _atom_site_fract_y
 _atom_site_fract_z
 _atom_site_occupancy
  Sr  Sr1  1  0.00000000  0.00000000  0.00000000  1.0
  B  B1  1  0.52648473  0.49012810  0.00000000  1.0
  B  B2  1  0.19858992  0.44693732  0.00000000  1.0
  Ir  Ir1  1  0.56854516  0.54301965  0.27595234  1.0
  Ir  Ir2  1  0.59424037  0.00000000  0.38507327  1.0
  Ir  Ir3  1  0.00000000  0.68437588  0.23042127  1.0
