# generated using pymatgen
data_SrFe2W
_symmetry_space_group_name_H-M   'P 1'
_cell_length_a   2.73448968
_cell_length_b   3.37960362
_cell_length_c   2.53106356
_cell_angle_alpha   65.07144928
_cell_angle_beta   60.00655365
_cell_angle_gamma   64.64550781
_symmetry_Int_Tables_number   1
_chemical_formula_structural   SrFe2W
_chemical_formula_sum   'Sr1 Fe2 W1'
_cell_volume   17.65237907
_cell_formula_units_Z   1
loop_
 _symmetry_equiv_pos_site_id
 _symmetry_equiv_pos_as_xyz
  1  'x, y, z'
loop_
 _atom_site_type_symbol
 _atom_site_label
 _atom_site_symmetry_multiplicity
 _atom_site_fract_x
 _atom_site_fract_y
 _atom_site_fract_z
 _atom_site_occupancy
  Sr  Sr1  1  0.59752792  0.74919027  0.49438241  1.0
  Fe  Fe1  1  0.20843711  0.30915120  0.32869393  1.0
  Fe  Fe2  1  0.60709745  0.48380020  0.51335925  1.0
  W  W1  1  0.00000000  0.00000000  0.00000000  1.0
