# generated using pymatgen
data_Ta2CrFe
_symmetry_space_group_name_H-M   'P 1'
_cell_length_a   2.86347437
_cell_length_b   3.39118505
_cell_length_c   2.14468122
_cell_angle_alpha   66.48818970
_cell_angle_beta   76.81522369
_cell_angle_gamma   59.33996582
_symmetry_Int_Tables_number   1
_chemical_formula_structural   Ta2CrFe
_chemical_formula_sum   'Ta2 Cr1 Fe1'
_cell_volume   16.41941506
_cell_formula_units_Z   1
loop_
 _symmetry_equiv_pos_site_id
 _symmetry_equiv_pos_as_xyz
  1  'x, y, z'
loop_
 _atom_site_type_symbol
 _atom_site_label
 _atom_site_symmetry_multiplicity
 _atom_site_fract_x
 _atom_site_fract_y
 _atom_site_fract_z
 _atom_site_occupancy
  Ta  Ta1  1  0.00000000  0.00000000  0.00000000  1.0
  Ta  Ta2  1  0.38189411  0.41182613  0.66130280  1.0
  Cr  Cr1  1  0.26049247  0.12860546  0.50802493  1.0
  Fe  Fe1  1  0.69540185  0.64083821  0.50453967  1.0
