# generated using pymatgen
data_Ta2MoRu
_symmetry_space_group_name_H-M   'P 1'
_cell_length_a   3.33818460
_cell_length_b   3.05907035
_cell_length_c   3.82842493
_cell_angle_alpha   50.91679001
_cell_angle_beta   53.24336243
_cell_angle_gamma   48.04664230
_symmetry_Int_Tables_number   1
_chemical_formula_structural   Ta2MoRu
_chemical_formula_sum   'Ta2 Mo1 Ru1'
_cell_volume   21.48213643
_cell_formula_units_Z   1
loop_
 _symmetry_equiv_pos_site_id
 _symmetry_equiv_pos_as_xyz
  1  'x, y, z'
loop_
 _atom_site_type_symbol
 _atom_site_label
 _atom_site_symmetry_multiplicity
 _atom_site_fract_x
 _atom_site_fract_y
 _atom_site_fract_z
 _atom_site_occupancy
  Ta  Ta1  1  0.00000000  0.00000000  0.00000000  1.0
  Ta  Ta2  1  0.43129194  0.44835183  0.49229014  1.0
  Mo  Mo1  1  0.35929134  0.23573050  0.27102777  1.0
  Ru  Ru1  1  0.71978498  0.80082881  0.67275161  1.0
