# generated using pymatgen
data_Ta2Nb
_symmetry_space_group_name_H-M   'P 1'
_cell_length_a   4.18328238
_cell_length_b   3.71188211
_cell_length_c   3.93331242
_cell_angle_alpha   68.30854034
_cell_angle_beta   60.29057693
_cell_angle_gamma   53.91169739
_symmetry_Int_Tables_number   1
_chemical_formula_structural   Ta2Nb
_chemical_formula_sum   'Ta2 Nb1'
_cell_volume   42.60482453
_cell_formula_units_Z   1
loop_
 _symmetry_equiv_pos_site_id
 _symmetry_equiv_pos_as_xyz
  1  'x, y, z'
loop_
 _atom_site_type_symbol
 _atom_site_label
 _atom_site_symmetry_multiplicity
 _atom_site_fract_x
 _atom_site_fract_y
 _atom_site_fract_z
 _atom_site_occupancy
  Ta  Ta1  1  0.00000000  0.00000000  0.00000000  1.0
  Ta  Ta2  1  0.52215815  0.59106159  0.61444134  1.0
  Nb  Nb1  1  0.77771711  0.78928101  0.81662953  1.0
