# generated using pymatgen
data_Ta2N
_symmetry_space_group_name_H-M   'P 1'
_cell_length_a   3.93397331
_cell_length_b   6.53651047
_cell_length_c   2.23465657
_cell_angle_alpha   81.42835999
_cell_angle_beta   79.82675171
_cell_angle_gamma   133.06562805
_symmetry_Int_Tables_number   1
_chemical_formula_structural   Ta2N
_chemical_formula_sum   'Ta4 N2'
_cell_volume   38.30556296
_cell_formula_units_Z   2
loop_
 _symmetry_equiv_pos_site_id
 _symmetry_equiv_pos_as_xyz
  1  'x, y, z'
loop_
 _atom_site_type_symbol
 _atom_site_label
 _atom_site_symmetry_multiplicity
 _atom_site_fract_x
 _atom_site_fract_y
 _atom_site_fract_z
 _atom_site_occupancy
  Ta  Ta1  1  0.00000000  0.00000000  0.00000000  1.0
  Ta  Ta2  1  0.21726391  0.41552415  0.66802657  1.0
  Ta  Ta3  1  0.79108238  0.24274564  0.58890438  1.0
  Ta  Ta4  1  0.26946828  0.00000000  0.00000000  1.0
  N  N1  1  0.32036716  0.41045800  0.00000000  1.0
  N  N2  1  0.00000000  0.76169407  0.00000000  1.0
