# generated using pymatgen
data_Ta2Pt5
_symmetry_space_group_name_H-M   'P 1'
_cell_length_a   3.61645579
_cell_length_b   2.52267456
_cell_length_c   5.63962698
_cell_angle_alpha   120.24936676
_cell_angle_beta   94.43429565
_cell_angle_gamma   85.08590698
_symmetry_Int_Tables_number   1
_chemical_formula_structural   Ta2Pt5
_chemical_formula_sum   'Ta2 Pt5'
_cell_volume   44.24731569
_cell_formula_units_Z   1
loop_
 _symmetry_equiv_pos_site_id
 _symmetry_equiv_pos_as_xyz
  1  'x, y, z'
loop_
 _atom_site_type_symbol
 _atom_site_label
 _atom_site_symmetry_multiplicity
 _atom_site_fract_x
 _atom_site_fract_y
 _atom_site_fract_z
 _atom_site_occupancy
  Ta  Ta1  1  0.82485330  0.35389608  0.00000000  1.0
  Ta  Ta2  1  0.00000000  0.60338515  0.28793573  1.0
  Pt  Pt1  1  0.34084177  0.12621379  0.53381091  1.0
  Pt  Pt2  1  0.45133078  0.92742562  0.38985294  1.0
  Pt  Pt3  1  0.92490679  0.66730446  0.71174055  1.0
  Pt  Pt4  1  0.10417286  0.31558105  0.58371454  1.0
  Pt  Pt5  1  0.00000000  0.00000000  0.00000000  1.0
