# generated using pymatgen
data_Ta3B4
_symmetry_space_group_name_H-M   'P 1'
_cell_length_a   1.37379146
_cell_length_b   1.95734060
_cell_length_c   8.41641331
_cell_angle_alpha   108.15020752
_cell_angle_beta   104.47604370
_cell_angle_gamma   98.52196503
_symmetry_Int_Tables_number   1
_chemical_formula_structural   Ta3B4
_chemical_formula_sum   'Ta3 B4'
_cell_volume   20.18444616
_cell_formula_units_Z   1
loop_
 _symmetry_equiv_pos_site_id
 _symmetry_equiv_pos_as_xyz
  1  'x, y, z'
loop_
 _atom_site_type_symbol
 _atom_site_label
 _atom_site_symmetry_multiplicity
 _atom_site_fract_x
 _atom_site_fract_y
 _atom_site_fract_z
 _atom_site_occupancy
  Ta  Ta1  1  0.28517768  0.35305166  0.42911771  1.0
  Ta  Ta2  1  0.63449454  0.85683775  0.54278111  1.0
  Ta  Ta3  1  0.31430453  0.17420363  0.00000000  1.0
  B  B1  1  0.95913410  0.18592459  0.64740819  1.0
  B  B2  1  0.00000000  0.71153659  0.22652709  1.0
  B  B3  1  0.35629010  0.31885901  0.75518763  1.0
  B  B4  1  0.72428519  0.91280568  0.22253522  1.0
