# generated using pymatgen
data_Ta3N
_symmetry_space_group_name_H-M   'P 1'
_cell_length_a   4.30764246
_cell_length_b   4.70285940
_cell_length_c   1.74248374
_cell_angle_alpha   98.18887329
_cell_angle_beta   93.90126038
_cell_angle_gamma   116.17428589
_symmetry_Int_Tables_number   1
_chemical_formula_structural   Ta3N
_chemical_formula_sum   'Ta3 N1'
_cell_volume   31.01473963
_cell_formula_units_Z   1
loop_
 _symmetry_equiv_pos_site_id
 _symmetry_equiv_pos_as_xyz
  1  'x, y, z'
loop_
 _atom_site_type_symbol
 _atom_site_label
 _atom_site_symmetry_multiplicity
 _atom_site_fract_x
 _atom_site_fract_y
 _atom_site_fract_z
 _atom_site_occupancy
  Ta  Ta1  1  0.00000000  0.00000000  0.00000000  1.0
  Ta  Ta2  1  0.46840763  0.70440936  0.59166807  1.0
  Ta  Ta3  1  0.60484648  0.24301919  0.66114408  1.0
  N  N1  1  0.12502080  0.43686506  0.00000000  1.0
