# generated using pymatgen
data_Ta3N4
_symmetry_space_group_name_H-M   'P 1'
_cell_length_a   3.81976938
_cell_length_b   5.54667187
_cell_length_c   2.31931639
_cell_angle_alpha   94.00745392
_cell_angle_beta   106.78600311
_cell_angle_gamma   136.87528992
_symmetry_Int_Tables_number   1
_chemical_formula_structural   Ta3N4
_chemical_formula_sum   'Ta3 N4'
_cell_volume   29.05226889
_cell_formula_units_Z   1
loop_
 _symmetry_equiv_pos_site_id
 _symmetry_equiv_pos_as_xyz
  1  'x, y, z'
loop_
 _atom_site_type_symbol
 _atom_site_label
 _atom_site_symmetry_multiplicity
 _atom_site_fract_x
 _atom_site_fract_y
 _atom_site_fract_z
 _atom_site_occupancy
  Ta  Ta1  1  0.00000000  0.00000000  0.00000000  1.0
  Ta  Ta2  1  0.33112177  0.80127192  0.35639155  1.0
  Ta  Ta3  1  0.84397161  0.16182271  0.28211755  1.0
  N  N1  1  0.15188900  0.00000000  0.00000000  1.0
  N  N2  1  0.40428942  0.60222507  0.00000000  1.0
  N  N3  1  0.00000000  0.62590241  0.00000000  1.0
  N  N4  1  0.12730241  0.00000000  0.00000000  1.0
