# generated using pymatgen
data_Ta4B3
_symmetry_space_group_name_H-M   'P 1'
_cell_length_a   4.33082867
_cell_length_b   2.83907747
_cell_length_c   5.02957010
_cell_angle_alpha   82.80390930
_cell_angle_beta   97.63847351
_cell_angle_gamma   81.26479340
_symmetry_Int_Tables_number   1
_chemical_formula_structural   Ta4B3
_chemical_formula_sum   'Ta4 B3'
_cell_volume   59.91018230
_cell_formula_units_Z   1
loop_
 _symmetry_equiv_pos_site_id
 _symmetry_equiv_pos_as_xyz
  1  'x, y, z'
loop_
 _atom_site_type_symbol
 _atom_site_label
 _atom_site_symmetry_multiplicity
 _atom_site_fract_x
 _atom_site_fract_y
 _atom_site_fract_z
 _atom_site_occupancy
  Ta  Ta1  1  0.11686787  0.12760875  0.25138599  1.0
  Ta  Ta2  1  0.82505023  0.73164678  0.72502702  1.0
  Ta  Ta3  1  0.56326479  0.00000000  0.00000000  1.0
  Ta  Ta4  1  0.93543243  0.47522011  0.90630722  1.0
  B  B1  1  0.00000000  0.31727850  0.15228650  1.0
  B  B2  1  0.18670368  0.10684809  0.31756666  1.0
  B  B3  1  0.48729178  0.50382602  0.14536998  1.0
