# generated using pymatgen
data_Ta4N5
_symmetry_space_group_name_H-M   'P 1'
_cell_length_a   4.04192877
_cell_length_b   3.71752572
_cell_length_c   5.11029673
_cell_angle_alpha   61.36713791
_cell_angle_beta   52.28846359
_cell_angle_gamma   54.22363663
_symmetry_Int_Tables_number   1
_chemical_formula_structural   Ta4N5
_chemical_formula_sum   'Ta4 N5'
_cell_volume   48.39138860
_cell_formula_units_Z   1
loop_
 _symmetry_equiv_pos_site_id
 _symmetry_equiv_pos_as_xyz
  1  'x, y, z'
loop_
 _atom_site_type_symbol
 _atom_site_label
 _atom_site_symmetry_multiplicity
 _atom_site_fract_x
 _atom_site_fract_y
 _atom_site_fract_z
 _atom_site_occupancy
  Ta  Ta1  1  0.60924685  0.71275681  0.52219117  1.0
  Ta  Ta2  1  0.61134338  0.43028244  0.86980683  1.0
  Ta  Ta3  1  0.61784476  0.74549997  0.29946655  1.0
  Ta  Ta4  1  0.60047066  0.65185577  0.59072429  1.0
  N  N1  1  0.10832608  0.00000000  0.00000000  1.0
  N  N2  1  0.90426576  0.15119904  0.74647945  1.0
  N  N3  1  0.69260675  0.00000000  0.57770681  1.0
  N  N4  1  0.19479868  0.61349934  0.56013250  1.0
  N  N5  1  0.00000000  0.28723234  0.38663661  1.0
