# generated using pymatgen
data_TaAl2Os
_symmetry_space_group_name_H-M   'P 1'
_cell_length_a   3.37589931
_cell_length_b   4.41062450
_cell_length_c   3.95739341
_cell_angle_alpha   64.08156586
_cell_angle_beta   55.11352158
_cell_angle_gamma   72.14587402
_symmetry_Int_Tables_number   1
_chemical_formula_structural   TaAl2Os
_chemical_formula_sum   'Ta1 Al2 Os1'
_cell_volume   43.34549793
_cell_formula_units_Z   1
loop_
 _symmetry_equiv_pos_site_id
 _symmetry_equiv_pos_as_xyz
  1  'x, y, z'
loop_
 _atom_site_type_symbol
 _atom_site_label
 _atom_site_symmetry_multiplicity
 _atom_site_fract_x
 _atom_site_fract_y
 _atom_site_fract_z
 _atom_site_occupancy
  Ta  Ta1  1  0.56309187  0.64367640  0.80186135  1.0
  Al  Al1  1  0.17474496  0.23149782  0.26235586  1.0
  Al  Al2  1  0.00000000  0.00000000  0.00000000  1.0
  Os  Os1  1  0.60751635  0.54162061  0.59794432  1.0
