# generated using pymatgen
data_TaB
_symmetry_space_group_name_H-M   'P 1'
_cell_length_a   1.69652259
_cell_length_b   2.67893410
_cell_length_c   4.08573294
_cell_angle_alpha   101.03184509
_cell_angle_beta   96.34624481
_cell_angle_gamma   83.92233276
_symmetry_Int_Tables_number   1
_chemical_formula_structural   TaB
_chemical_formula_sum   'Ta2 B2'
_cell_volume   18.04585684
_cell_formula_units_Z   2
loop_
 _symmetry_equiv_pos_site_id
 _symmetry_equiv_pos_as_xyz
  1  'x, y, z'
loop_
 _atom_site_type_symbol
 _atom_site_label
 _atom_site_symmetry_multiplicity
 _atom_site_fract_x
 _atom_site_fract_y
 _atom_site_fract_z
 _atom_site_occupancy
  Ta  Ta1  1  0.75078952  0.21276289  0.46522060  1.0
  Ta  Ta2  1  0.25061160  0.86723495  0.69649363  1.0
  B  B1  1  0.75185275  0.49479464  0.92176366  1.0
  B  B2  1  0.31795058  0.62472135  0.00000000  1.0
