# generated using pymatgen
data_TaCo3
_symmetry_space_group_name_H-M   'P 1'
_cell_length_a   2.88976884
_cell_length_b   3.45585346
_cell_length_c   2.72968459
_cell_angle_alpha   112.72940063
_cell_angle_beta   98.89736176
_cell_angle_gamma   77.60343933
_symmetry_Int_Tables_number   1
_chemical_formula_structural   TaCo3
_chemical_formula_sum   'Ta1 Co3'
_cell_volume   24.47911938
_cell_formula_units_Z   1
loop_
 _symmetry_equiv_pos_site_id
 _symmetry_equiv_pos_as_xyz
  1  'x, y, z'
loop_
 _atom_site_type_symbol
 _atom_site_label
 _atom_site_symmetry_multiplicity
 _atom_site_fract_x
 _atom_site_fract_y
 _atom_site_fract_z
 _atom_site_occupancy
  Ta  Ta1  1  0.00000000  0.00000000  0.00000000  1.0
  Co  Co1  1  0.00000000  0.45463461  0.15858120  1.0
  Co  Co2  1  0.58745253  0.60187548  0.00000000  1.0
  Co  Co3  1  0.21721950  0.00000000  0.82913482  1.0
