# generated using pymatgen
data_TaFe2
_symmetry_space_group_name_H-M   'P 1'
_cell_length_a   5.33092785
_cell_length_b   3.88445783
_cell_length_c   4.28413725
_cell_angle_alpha   98.41825867
_cell_angle_beta   98.23131561
_cell_angle_gamma   131.91127014
_symmetry_Int_Tables_number   1
_chemical_formula_structural   TaFe2
_chemical_formula_sum   'Ta4 Fe8'
_cell_volume   61.71093274
_cell_formula_units_Z   4
loop_
 _symmetry_equiv_pos_site_id
 _symmetry_equiv_pos_as_xyz
  1  'x, y, z'
loop_
 _atom_site_type_symbol
 _atom_site_label
 _atom_site_symmetry_multiplicity
 _atom_site_fract_x
 _atom_site_fract_y
 _atom_site_fract_z
 _atom_site_occupancy
  Ta  Ta1  1  0.66923982  0.29162574  0.40502045  1.0
  Ta  Ta2  1  0.40946960  0.61557353  0.91211522  1.0
  Ta  Ta3  1  0.60548085  0.65803933  0.55775797  1.0
  Ta  Ta4  1  0.78252274  0.53415757  0.00000000  1.0
  Fe  Fe1  1  0.27290142  0.10807785  0.61491716  1.0
  Fe  Fe2  1  0.00000000  0.80487823  0.11837542  1.0
  Fe  Fe3  1  0.11589360  0.67234045  0.00000000  1.0
  Fe  Fe4  1  0.94565427  0.53817999  0.44068271  1.0
  Fe  Fe5  1  0.89073110  0.17546380  0.00000000  1.0
  Fe  Fe6  1  0.72020912  0.89956659  0.37887087  1.0
  Fe  Fe7  1  0.66370684  0.13589996  0.77007866  1.0
  Fe  Fe8  1  0.90694332  0.00000000  0.53335065  1.0
