# generated using pymatgen
data_TaFe
_symmetry_space_group_name_H-M   'P 1'
_cell_length_a   3.63249207
_cell_length_b   4.42432356
_cell_length_c   3.12421322
_cell_angle_alpha   64.62025452
_cell_angle_beta   61.96042633
_cell_angle_gamma   68.13175964
_symmetry_Int_Tables_number   1
_chemical_formula_structural   TaFe
_chemical_formula_sum   'Ta1 Fe1'
_cell_volume   39.10828172
_cell_formula_units_Z   1
loop_
 _symmetry_equiv_pos_site_id
 _symmetry_equiv_pos_as_xyz
  1  'x, y, z'
loop_
 _atom_site_type_symbol
 _atom_site_label
 _atom_site_symmetry_multiplicity
 _atom_site_fract_x
 _atom_site_fract_y
 _atom_site_fract_z
 _atom_site_occupancy
  Ta  Ta1  1  0.71420741  0.73877299  0.75083607  1.0
  Fe  Fe1  1  0.28490552  0.35240865  0.43311325  1.0
