# generated using pymatgen
data_TaHRh
_symmetry_space_group_name_H-M   'P 1'
_cell_length_a   2.60567284
_cell_length_b   5.09928560
_cell_length_c   4.83824301
_cell_angle_alpha   78.65753174
_cell_angle_beta   85.76166534
_cell_angle_gamma   77.51103973
_symmetry_Int_Tables_number   1
_chemical_formula_structural   TaHRh
_chemical_formula_sum   'Ta4 H4 Rh4'
_cell_volume   61.50600277
_cell_formula_units_Z   4
loop_
 _symmetry_equiv_pos_site_id
 _symmetry_equiv_pos_as_xyz
  1  'x, y, z'
loop_
 _atom_site_type_symbol
 _atom_site_label
 _atom_site_symmetry_multiplicity
 _atom_site_fract_x
 _atom_site_fract_y
 _atom_site_fract_z
 _atom_site_occupancy
  Ta  Ta1  1  0.25450474  0.62433577  0.11301985  1.0
  Ta  Ta2  1  0.91119170  0.32795912  0.51627308  1.0
  Ta  Ta3  1  0.13517088  0.00000000  0.15965921  1.0
  Ta  Ta4  1  0.84914911  0.92357045  0.73107356  1.0
  H  H1  1  0.16377807  0.22696975  0.56870139  1.0
  H  H2  1  0.72875065  0.62479132  0.00000000  1.0
  H  H3  1  0.17085230  0.84384292  0.78567016  1.0
  H  H4  1  0.87723160  0.33771783  0.13324887  1.0
  Rh  Rh1  1  0.69009751  0.70885360  0.46581954  1.0
  Rh  Rh2  1  0.56021786  0.45014691  0.31009158  1.0
  Rh  Rh3  1  0.65685964  0.33797458  0.00000000  1.0
  Rh  Rh4  1  0.21201864  0.55467045  0.95893079  1.0
