# generated using pymatgen
data_TaIr3
_symmetry_space_group_name_H-M   'P 1'
_cell_length_a   3.51503396
_cell_length_b   5.49781370
_cell_length_c   3.65524602
_cell_angle_alpha   92.18798065
_cell_angle_beta   88.51364899
_cell_angle_gamma   113.49263000
_symmetry_Int_Tables_number   1
_chemical_formula_structural   TaIr3
_chemical_formula_sum   'Ta1 Ir3'
_cell_volume   64.73091968
_cell_formula_units_Z   1
loop_
 _symmetry_equiv_pos_site_id
 _symmetry_equiv_pos_as_xyz
  1  'x, y, z'
loop_
 _atom_site_type_symbol
 _atom_site_label
 _atom_site_symmetry_multiplicity
 _atom_site_fract_x
 _atom_site_fract_y
 _atom_site_fract_z
 _atom_site_occupancy
  Ta  Ta1  1  0.00000000  0.00000000  0.00000000  1.0
  Ir  Ir1  1  0.59248585  0.39780456  0.00000000  1.0
  Ir  Ir2  1  0.50755286  0.00000000  0.31061047  1.0
  Ir  Ir3  1  0.00000000  0.41163546  0.39002407  1.0
