# generated using pymatgen
data_TaN
_symmetry_space_group_name_H-M   'P 1'
_cell_length_a   2.73215866
_cell_length_b   5.26081276
_cell_length_c   1.59364831
_cell_angle_alpha   87.76558685
_cell_angle_beta   96.50842285
_cell_angle_gamma   143.36248779
_symmetry_Int_Tables_number   1
_chemical_formula_structural   TaN
_chemical_formula_sum   'Ta3 N3'
_cell_volume   13.52886490
_cell_formula_units_Z   3
loop_
 _symmetry_equiv_pos_site_id
 _symmetry_equiv_pos_as_xyz
  1  'x, y, z'
loop_
 _atom_site_type_symbol
 _atom_site_label
 _atom_site_symmetry_multiplicity
 _atom_site_fract_x
 _atom_site_fract_y
 _atom_site_fract_z
 _atom_site_occupancy
  Ta  Ta1  1  0.00000000  0.00000000  0.11760387  1.0
  Ta  Ta2  1  0.44319159  0.63681841  0.48999271  1.0
  Ta  Ta3  1  0.69731605  0.38825250  0.51484483  1.0
  N  N1  1  0.53645581  0.00000000  0.00000000  1.0
  N  N2  1  0.19286522  0.37511924  0.00000000  1.0
  N  N3  1  0.00000000  0.34324026  0.00000000  1.0
