# generated using pymatgen
data_TaO2
_symmetry_space_group_name_H-M   'P 1'
_cell_length_a   4.58388090
_cell_length_b   5.81937456
_cell_length_c   2.47151899
_cell_angle_alpha   85.27166748
_cell_angle_beta   90.43113708
_cell_angle_gamma   107.44456482
_symmetry_Int_Tables_number   1
_chemical_formula_structural   TaO2
_chemical_formula_sum   'Ta2 O4'
_cell_volume   62.67204230
_cell_formula_units_Z   2
loop_
 _symmetry_equiv_pos_site_id
 _symmetry_equiv_pos_as_xyz
  1  'x, y, z'
loop_
 _atom_site_type_symbol
 _atom_site_label
 _atom_site_symmetry_multiplicity
 _atom_site_fract_x
 _atom_site_fract_y
 _atom_site_fract_z
 _atom_site_occupancy
  Ta  Ta1  1  0.00000000  0.00000000  0.67241424  1.0
  Ta  Ta2  1  0.34384608  0.41838163  0.00000000  1.0
  O  O1  1  0.73396093  0.16032138  0.59147036  1.0
  O  O2  1  0.15295446  0.80344653  0.56484938  1.0
  O  O3  1  0.20931271  0.15075168  0.00000000  1.0
  O  O4  1  0.74610311  0.83975053  0.00000000  1.0
