# generated using pymatgen
data_TaPt2
_symmetry_space_group_name_H-M   'P 1'
_cell_length_a   4.32223129
_cell_length_b   2.69303656
_cell_length_c   6.18679714
_cell_angle_alpha   107.88859558
_cell_angle_beta   97.72055054
_cell_angle_gamma   95.34687042
_symmetry_Int_Tables_number   1
_chemical_formula_structural   TaPt2
_chemical_formula_sum   'Ta2 Pt4'
_cell_volume   67.21739518
_cell_formula_units_Z   2
loop_
 _symmetry_equiv_pos_site_id
 _symmetry_equiv_pos_as_xyz
  1  'x, y, z'
loop_
 _atom_site_type_symbol
 _atom_site_label
 _atom_site_symmetry_multiplicity
 _atom_site_fract_x
 _atom_site_fract_y
 _atom_site_fract_z
 _atom_site_occupancy
  Ta  Ta1  1  0.64343584  0.26957732  0.00000000  1.0
  Ta  Ta2  1  0.16724944  0.74663097  0.00000000  1.0
  Pt  Pt1  1  0.14074066  0.17806736  0.84821737  1.0
  Pt  Pt2  1  0.82290959  0.84712911  0.39578056  1.0
  Pt  Pt3  1  0.58318812  0.78520942  0.63093960  1.0
  Pt  Pt4  1  0.27786994  0.26873446  0.24397454  1.0
