# generated using pymatgen
data_TaRe2
_symmetry_space_group_name_H-M   'P 1'
_cell_length_a   1.97646832
_cell_length_b   2.83092618
_cell_length_c   2.78486133
_cell_angle_alpha   104.75924683
_cell_angle_beta   97.69407654
_cell_angle_gamma   115.83152008
_symmetry_Int_Tables_number   1
_chemical_formula_structural   TaRe2
_chemical_formula_sum   'Ta1 Re2'
_cell_volume   13.01436283
_cell_formula_units_Z   1
loop_
 _symmetry_equiv_pos_site_id
 _symmetry_equiv_pos_as_xyz
  1  'x, y, z'
loop_
 _atom_site_type_symbol
 _atom_site_label
 _atom_site_symmetry_multiplicity
 _atom_site_fract_x
 _atom_site_fract_y
 _atom_site_fract_z
 _atom_site_occupancy
  Ta  Ta1  1  0.43723160  0.71255577  0.26108783  1.0
  Re  Re1  1  0.54397130  0.27812427  0.63001955  1.0
  Re  Re2  1  0.00000000  0.00000000  0.00000000  1.0
