# generated using pymatgen
data_TaRh3
_symmetry_space_group_name_H-M   'P 1'
_cell_length_a   1.61917984
_cell_length_b   2.10456586
_cell_length_c   0.88653684
_cell_angle_alpha   96.77663422
_cell_angle_beta   65.61021423
_cell_angle_gamma   90.82115936
_symmetry_Int_Tables_number   1
_chemical_formula_structural   TaRh3
_chemical_formula_sum   'Ta1 Rh3'
_cell_volume   2.73022220
_cell_formula_units_Z   1
loop_
 _symmetry_equiv_pos_site_id
 _symmetry_equiv_pos_as_xyz
  1  'x, y, z'
loop_
 _atom_site_type_symbol
 _atom_site_label
 _atom_site_symmetry_multiplicity
 _atom_site_fract_x
 _atom_site_fract_y
 _atom_site_fract_z
 _atom_site_occupancy
  Ta  Ta1  1  0.00000000  0.00000000  0.00000000  1.0
  Rh  Rh1  1  0.00000000  0.45074719  0.37102515  1.0
  Rh  Rh2  1  0.57091349  0.36157066  0.00000000  1.0
  Rh  Rh3  1  0.36253875  0.00000000  0.69769692  1.0
