# generated using pymatgen
data_TaRu3
_symmetry_space_group_name_H-M   'P 1'
_cell_length_a   3.04752898
_cell_length_b   3.08096290
_cell_length_c   1.72420061
_cell_angle_alpha   107.05332184
_cell_angle_beta   95.42434692
_cell_angle_gamma   64.03914642
_symmetry_Int_Tables_number   1
_chemical_formula_structural   TaRu3
_chemical_formula_sum   'Ta1 Ru3'
_cell_volume   13.90472793
_cell_formula_units_Z   1
loop_
 _symmetry_equiv_pos_site_id
 _symmetry_equiv_pos_as_xyz
  1  'x, y, z'
loop_
 _atom_site_type_symbol
 _atom_site_label
 _atom_site_symmetry_multiplicity
 _atom_site_fract_x
 _atom_site_fract_y
 _atom_site_fract_z
 _atom_site_occupancy
  Ta  Ta1  1  0.00000000  0.89601088  0.00000000  1.0
  Ru  Ru1  1  0.00000000  0.72701955  0.39600414  1.0
  Ru  Ru2  1  0.63713932  0.00000000  0.58715314  1.0
  Ru  Ru3  1  0.42629996  0.30040109  0.00000000  1.0
