# generated using pymatgen
data_TaRu
_symmetry_space_group_name_H-M   'P 1'
_cell_length_a   2.68863487
_cell_length_b   2.69179916
_cell_length_c   2.30585051
_cell_angle_alpha   99.21856689
_cell_angle_beta   95.54795074
_cell_angle_gamma   100.88787079
_symmetry_Int_Tables_number   1
_chemical_formula_structural   TaRu
_chemical_formula_sum   'Ta1 Ru1'
_cell_volume   16.03668189
_cell_formula_units_Z   1
loop_
 _symmetry_equiv_pos_site_id
 _symmetry_equiv_pos_as_xyz
  1  'x, y, z'
loop_
 _atom_site_type_symbol
 _atom_site_label
 _atom_site_symmetry_multiplicity
 _atom_site_fract_x
 _atom_site_fract_y
 _atom_site_fract_z
 _atom_site_occupancy
  Ta  Ta1  1  0.39089462  0.41244504  0.51651025  1.0
  Ru  Ru1  1  0.00000000  0.00000000  0.00000000  1.0
