# generated using pymatgen
data_TaSiRh
_symmetry_space_group_name_H-M   'P 1'
_cell_length_a   1.78502786
_cell_length_b   6.97421455
_cell_length_c   5.00987816
_cell_angle_alpha   97.26083374
_cell_angle_beta   95.55699921
_cell_angle_gamma   92.72375488
_symmetry_Int_Tables_number   1
_chemical_formula_structural   TaSiRh
_chemical_formula_sum   'Ta4 Si4 Rh4'
_cell_volume   61.46502036
_cell_formula_units_Z   4
loop_
 _symmetry_equiv_pos_site_id
 _symmetry_equiv_pos_as_xyz
  1  'x, y, z'
loop_
 _atom_site_type_symbol
 _atom_site_label
 _atom_site_symmetry_multiplicity
 _atom_site_fract_x
 _atom_site_fract_y
 _atom_site_fract_z
 _atom_site_occupancy
  Ta  Ta1  1  0.34840879  0.21339464  0.31583905  1.0
  Ta  Ta2  1  0.86303973  0.59036505  0.56178147  1.0
  Ta  Ta3  1  0.16101503  0.00000000  0.20674324  1.0
  Ta  Ta4  1  0.70974356  0.89505231  0.84772331  1.0
  Si  Si1  1  0.24136260  0.44071862  0.53745061  1.0
  Si  Si2  1  0.80066693  0.64151925  0.00000000  1.0
  Si  Si3  1  0.29199034  0.75094622  0.66825604  1.0
  Si  Si4  1  0.77155077  0.28406239  0.33966577  1.0
  Rh  Rh1  1  0.74230307  0.80537856  0.65800667  1.0
  Rh  Rh2  1  0.00000000  0.00000000  0.47358781  1.0
  Rh  Rh3  1  0.21605089  0.25047100  0.00000000  1.0
  Rh  Rh4  1  0.15300533  0.37293142  0.86686027  1.0
