# generated using pymatgen
data_Tb(BIr2)2
_symmetry_space_group_name_H-M   'P 1'
_cell_length_a   3.56143498
_cell_length_b   6.55207157
_cell_length_c   4.61198664
_cell_angle_alpha   86.67400360
_cell_angle_beta   77.28292084
_cell_angle_gamma   116.32624054
_symmetry_Int_Tables_number   1
_chemical_formula_structural   Tb(BIr2)2
_chemical_formula_sum   'Tb1 B2 Ir4'
_cell_volume   92.58856189
_cell_formula_units_Z   1
loop_
 _symmetry_equiv_pos_site_id
 _symmetry_equiv_pos_as_xyz
  1  'x, y, z'
loop_
 _atom_site_type_symbol
 _atom_site_label
 _atom_site_symmetry_multiplicity
 _atom_site_fract_x
 _atom_site_fract_y
 _atom_site_fract_z
 _atom_site_occupancy
  Tb  Tb1  1  0.74466491  0.49496311  0.00000000  1.0
  B  B1  1  0.57856381  0.17632091  0.68736488  1.0
  B  B2  1  0.40916848  0.89070988  0.30359754  1.0
  Ir  Ir1  1  0.00000000  0.00000000  0.22462404  1.0
  Ir  Ir2  1  0.00000000  0.19744715  0.55957651  1.0
  Ir  Ir3  1  0.00000000  0.00000000  0.11171266  1.0
  Ir  Ir4  1  0.00000000  0.00000000  0.00000000  1.0
