# generated using pymatgen
data_TbB2Ir3
_symmetry_space_group_name_H-M   'P 1'
_cell_length_a   2.91223788
_cell_length_b   3.89306712
_cell_length_c   6.87501240
_cell_angle_alpha   73.31637573
_cell_angle_beta   97.14637756
_cell_angle_gamma   95.22875977
_symmetry_Int_Tables_number   1
_chemical_formula_structural   TbB2Ir3
_chemical_formula_sum   'Tb1 B2 Ir3'
_cell_volume   73.95849256
_cell_formula_units_Z   1
loop_
 _symmetry_equiv_pos_site_id
 _symmetry_equiv_pos_as_xyz
  1  'x, y, z'
loop_
 _atom_site_type_symbol
 _atom_site_label
 _atom_site_symmetry_multiplicity
 _atom_site_fract_x
 _atom_site_fract_y
 _atom_site_fract_z
 _atom_site_occupancy
  Tb  Tb1  1  0.78134143  0.52058089  0.12627906  1.0
  B  B1  1  0.45429325  0.13757420  0.49668390  1.0
  B  B2  1  0.45478418  0.89295411  0.23493150  1.0
  Ir  Ir1  1  0.00000000  0.00000000  0.80656636  1.0
  Ir  Ir2  1  0.00000000  0.57885039  0.71759081  1.0
  Ir  Ir3  1  0.00000000  0.00000000  0.00000000  1.0
