# generated using pymatgen
data_Tc2Pd
_symmetry_space_group_name_H-M   'P 1'
_cell_length_a   6.24220991
_cell_length_b   3.88070726
_cell_length_c   3.38379645
_cell_angle_alpha   86.13594055
_cell_angle_beta   90.00933838
_cell_angle_gamma   123.82967377
_symmetry_Int_Tables_number   1
_chemical_formula_structural   Tc2Pd
_chemical_formula_sum   'Tc6 Pd3'
_cell_volume   67.86811764
_cell_formula_units_Z   3
loop_
 _symmetry_equiv_pos_site_id
 _symmetry_equiv_pos_as_xyz
  1  'x, y, z'
loop_
 _atom_site_type_symbol
 _atom_site_label
 _atom_site_symmetry_multiplicity
 _atom_site_fract_x
 _atom_site_fract_y
 _atom_site_fract_z
 _atom_site_occupancy
  Tc  Tc1  1  0.82753044  0.11577222  0.58611012  1.0
  Tc  Tc2  1  0.29661840  0.12507424  0.70193195  1.0
  Tc  Tc3  1  0.83740711  0.78939319  0.77258670  1.0
  Tc  Tc4  1  0.18383798  0.87309724  0.18390396  1.0
  Tc  Tc5  1  0.65476519  0.90604317  0.25585324  1.0
  Tc  Tc6  1  0.14076757  0.41820884  0.19583559  1.0
  Pd  Pd1  1  0.66840398  0.26547861  0.22456953  1.0
  Pd  Pd2  1  0.46058974  0.55189949  0.82073236  1.0
  Pd  Pd3  1  0.00000000  0.00000000  0.00000000  1.0
