# generated using pymatgen
data_Tc3N
_symmetry_space_group_name_H-M   'P 1'
_cell_length_a   3.78489780
_cell_length_b   1.16996753
_cell_length_c   5.27484703
_cell_angle_alpha   96.50912476
_cell_angle_beta   94.00868225
_cell_angle_gamma   125.69490814
_symmetry_Int_Tables_number   1
_chemical_formula_structural   Tc3N
_chemical_formula_sum   'Tc3 N1'
_cell_volume   18.57782834
_cell_formula_units_Z   1
loop_
 _symmetry_equiv_pos_site_id
 _symmetry_equiv_pos_as_xyz
  1  'x, y, z'
loop_
 _atom_site_type_symbol
 _atom_site_label
 _atom_site_symmetry_multiplicity
 _atom_site_fract_x
 _atom_site_fract_y
 _atom_site_fract_z
 _atom_site_occupancy
  Tc  Tc1  1  0.60210311  0.41277489  0.43373317  1.0
  Tc  Tc2  1  0.39527279  0.78177249  0.79910111  1.0
  Tc  Tc3  1  0.37037286  0.73893917  0.00000000  1.0
  N  N1  1  0.70921302  0.18392387  0.00000000  1.0
