# generated using pymatgen
data_Tc3Pt
_symmetry_space_group_name_H-M   'P 1'
_cell_length_a   3.47865152
_cell_length_b   5.88735533
_cell_length_c   3.59944654
_cell_angle_alpha   72.62133026
_cell_angle_beta   93.75135803
_cell_angle_gamma   120.80680847
_symmetry_Int_Tables_number   1
_chemical_formula_structural   Tc3Pt
_chemical_formula_sum   'Tc6 Pt2'
_cell_volume   60.07950281
_cell_formula_units_Z   2
loop_
 _symmetry_equiv_pos_site_id
 _symmetry_equiv_pos_as_xyz
  1  'x, y, z'
loop_
 _atom_site_type_symbol
 _atom_site_label
 _atom_site_symmetry_multiplicity
 _atom_site_fract_x
 _atom_site_fract_y
 _atom_site_fract_z
 _atom_site_occupancy
  Tc  Tc1  1  0.16415802  0.45319009  0.41984895  1.0
  Tc  Tc2  1  0.64940596  0.60629380  0.19941977  1.0
  Tc  Tc3  1  0.14972004  0.83680236  0.00000000  1.0
  Tc  Tc4  1  0.84299606  0.34430721  0.88070047  1.0
  Tc  Tc5  1  0.48829424  0.31021953  0.75797808  1.0
  Tc  Tc6  1  0.72311884  0.29087171  0.79550993  1.0
  Pt  Pt1  1  0.21529365  0.50160235  0.65498441  1.0
  Pt  Pt2  1  0.57470101  0.28708822  0.29957661  1.0
