# generated using pymatgen
data_Tc3Pd
_symmetry_space_group_name_H-M   'P 1'
_cell_length_a   6.24890280
_cell_length_b   4.22778034
_cell_length_c   4.16757822
_cell_angle_alpha   94.80672455
_cell_angle_beta   84.22029114
_cell_angle_gamma   124.82202911
_symmetry_Int_Tables_number   1
_chemical_formula_structural   Tc3Pd
_chemical_formula_sum   'Tc6 Pd2'
_cell_volume   89.88090358
_cell_formula_units_Z   2
loop_
 _symmetry_equiv_pos_site_id
 _symmetry_equiv_pos_as_xyz
  1  'x, y, z'
loop_
 _atom_site_type_symbol
 _atom_site_label
 _atom_site_symmetry_multiplicity
 _atom_site_fract_x
 _atom_site_fract_y
 _atom_site_fract_z
 _atom_site_occupancy
  Tc  Tc1  1  0.71215707  0.11372882  0.81264973  1.0
  Tc  Tc2  1  0.52236640  0.10959461  0.55034649  1.0
  Tc  Tc3  1  0.65049702  0.71308744  0.80215853  1.0
  Tc  Tc4  1  0.25152510  0.76352835  0.19354320  1.0
  Tc  Tc5  1  0.51203752  0.78609163  0.21759185  1.0
  Tc  Tc6  1  0.12110573  0.00000000  0.00000000  1.0
  Pd  Pd1  1  0.73877203  0.13753709  0.25024229  1.0
  Pd  Pd2  1  0.27264571  0.58463657  0.83812046  1.0
