# generated using pymatgen
data_Tc
_symmetry_space_group_name_H-M   'P 1'
_cell_length_a   2.52134562
_cell_length_b   1.35591674
_cell_length_c   6.46945095
_cell_angle_alpha   91.16393280
_cell_angle_beta   84.40255737
_cell_angle_gamma   126.37065125
_symmetry_Int_Tables_number   1
_chemical_formula_structural   Tc
_chemical_formula_sum   Tc4
_cell_volume   17.70446521
_cell_formula_units_Z   4
loop_
 _symmetry_equiv_pos_site_id
 _symmetry_equiv_pos_as_xyz
  1  'x, y, z'
loop_
 _atom_site_type_symbol
 _atom_site_label
 _atom_site_symmetry_multiplicity
 _atom_site_fract_x
 _atom_site_fract_y
 _atom_site_fract_z
 _atom_site_occupancy
  Tc  Tc1  1  0.62748152  0.25612509  0.34447613  1.0
  Tc  Tc2  1  0.22523823  0.79855001  0.87919974  1.0
  Tc  Tc3  1  0.54661030  0.73449451  0.00000000  1.0
  Tc  Tc4  1  0.53118807  0.26824248  0.00000000  1.0
