# generated using pymatgen
data_TcB2
_symmetry_space_group_name_H-M   'P 1'
_cell_length_a   2.54783416
_cell_length_b   2.22136736
_cell_length_c   7.98967266
_cell_angle_alpha   83.85481262
_cell_angle_beta   85.04648590
_cell_angle_gamma   123.22019958
_symmetry_Int_Tables_number   1
_chemical_formula_structural   TcB2
_chemical_formula_sum   'Tc2 B4'
_cell_volume   37.03562520
_cell_formula_units_Z   2
loop_
 _symmetry_equiv_pos_site_id
 _symmetry_equiv_pos_as_xyz
  1  'x, y, z'
loop_
 _atom_site_type_symbol
 _atom_site_label
 _atom_site_symmetry_multiplicity
 _atom_site_fract_x
 _atom_site_fract_y
 _atom_site_fract_z
 _atom_site_occupancy
  Tc  Tc1  1  0.20161977  0.21798769  0.00000000  1.0
  Tc  Tc2  1  0.53931230  0.29500854  0.74328518  1.0
  B  B1  1  0.40538928  0.66020346  0.91089761  1.0
  B  B2  1  0.61348361  0.31873047  0.13840759  1.0
  B  B3  1  0.74530661  0.39471489  0.46397009  1.0
  B  B4  1  0.33835340  0.83146811  0.53031367  1.0
