# generated using pymatgen
data_TcRu3
_symmetry_space_group_name_H-M   'P 1'
_cell_length_a   3.81472921
_cell_length_b   2.96088719
_cell_length_c   2.90843773
_cell_angle_alpha   83.26054382
_cell_angle_beta   96.50759125
_cell_angle_gamma   124.71548462
_symmetry_Int_Tables_number   1
_chemical_formula_structural   TcRu3
_chemical_formula_sum   'Tc2 Ru6'
_cell_volume   26.77286266
_cell_formula_units_Z   2
loop_
 _symmetry_equiv_pos_site_id
 _symmetry_equiv_pos_as_xyz
  1  'x, y, z'
loop_
 _atom_site_type_symbol
 _atom_site_label
 _atom_site_symmetry_multiplicity
 _atom_site_fract_x
 _atom_site_fract_y
 _atom_site_fract_z
 _atom_site_occupancy
  Tc  Tc1  1  0.31543145  0.62610108  0.72438985  1.0
  Tc  Tc2  1  0.78642976  0.41449532  0.18741137  1.0
  Ru  Ru1  1  0.24834374  0.39133871  0.11554712  1.0
  Ru  Ru2  1  0.67029530  0.87474501  0.26005581  1.0
  Ru  Ru3  1  0.19668168  0.79319340  0.17040473  1.0
  Ru  Ru4  1  0.81508136  0.62082344  0.91118801  1.0
  Ru  Ru5  1  0.46058252  0.16257560  0.82235086  1.0
  Ru  Ru6  1  0.91818064  0.13265923  0.76932073  1.0
