# generated using pymatgen
data_Th2Si2Te3
_symmetry_space_group_name_H-M   'P 1'
_cell_length_a   3.00797677
_cell_length_b   2.79828453
_cell_length_c   8.30412388
_cell_angle_alpha   83.72125244
_cell_angle_beta   109.50197601
_cell_angle_gamma   72.40711212
_symmetry_Int_Tables_number   1
_chemical_formula_structural   Th2Si2Te3
_chemical_formula_sum   'Th2 Si2 Te3'
_cell_volume   61.06171769
_cell_formula_units_Z   1
loop_
 _symmetry_equiv_pos_site_id
 _symmetry_equiv_pos_as_xyz
  1  'x, y, z'
loop_
 _atom_site_type_symbol
 _atom_site_label
 _atom_site_symmetry_multiplicity
 _atom_site_fract_x
 _atom_site_fract_y
 _atom_site_fract_z
 _atom_site_occupancy
  Th  Th1  1  0.00000000  0.12105435  0.13483444  1.0
  Th  Th2  1  0.78745621  0.74697721  0.73060167  1.0
  Si  Si1  1  0.00000000  0.50883538  0.00000000  1.0
  Si  Si2  1  0.50366843  0.19965613  0.00000000  1.0
  Te  Te1  1  0.10887632  0.14967409  0.60954821  1.0
  Te  Te2  1  0.70110780  0.42194331  0.31601384  1.0
  Te  Te3  1  0.00000000  0.00000000  0.00000000  1.0
