# generated using pymatgen
data_ThB2Ir3
_symmetry_space_group_name_H-M   'P 1'
_cell_length_a   2.96366310
_cell_length_b   3.84910464
_cell_length_c   3.82342052
_cell_angle_alpha   70.99967194
_cell_angle_beta   86.03608704
_cell_angle_gamma   117.51328278
_symmetry_Int_Tables_number   1
_chemical_formula_structural   ThB2Ir3
_chemical_formula_sum   'Th1 B2 Ir3'
_cell_volume   35.29965340
_cell_formula_units_Z   1
loop_
 _symmetry_equiv_pos_site_id
 _symmetry_equiv_pos_as_xyz
  1  'x, y, z'
loop_
 _atom_site_type_symbol
 _atom_site_label
 _atom_site_symmetry_multiplicity
 _atom_site_fract_x
 _atom_site_fract_y
 _atom_site_fract_z
 _atom_site_occupancy
  Th  Th1  1  0.00000000  0.00000000  0.00000000  1.0
  B  B1  1  0.44899035  0.37648594  0.00000000  1.0
  B  B2  1  0.19121194  0.71686023  0.00000000  1.0
  Ir  Ir1  1  0.57098871  0.00000000  0.72925699  1.0
  Ir  Ir2  1  0.00000000  0.65814412  0.77179635  1.0
  Ir  Ir3  1  0.34653416  0.56605732  0.33188313  1.0
