# generated using pymatgen
data_ThOs2
_symmetry_space_group_name_H-M   'P 1'
_cell_length_a   3.93605733
_cell_length_b   5.50132847
_cell_length_c   3.83852100
_cell_angle_alpha   54.26246262
_cell_angle_beta   56.69057846
_cell_angle_gamma   66.43730164
_symmetry_Int_Tables_number   1
_chemical_formula_structural   ThOs2
_chemical_formula_sum   'Th2 Os4'
_cell_volume   55.99933305
_cell_formula_units_Z   2
loop_
 _symmetry_equiv_pos_site_id
 _symmetry_equiv_pos_as_xyz
  1  'x, y, z'
loop_
 _atom_site_type_symbol
 _atom_site_label
 _atom_site_symmetry_multiplicity
 _atom_site_fract_x
 _atom_site_fract_y
 _atom_site_fract_z
 _atom_site_occupancy
  Th  Th1  1  0.58176363  0.83853126  0.68190455  1.0
  Th  Th2  1  0.10393983  0.15843806  0.17530638  1.0
  Os  Os1  1  0.36535782  0.41504174  0.36480945  1.0
  Os  Os2  1  0.46464670  0.48299560  0.94092953  1.0
  Os  Os3  1  0.92472816  0.33600664  0.70534754  1.0
  Os  Os4  1  0.24421385  0.88607025  0.67647016  1.0
