# generated using pymatgen
data_ThSiTe
_symmetry_space_group_name_H-M   'P 1'
_cell_length_a   3.57291722
_cell_length_b   4.16041183
_cell_length_c   5.68071508
_cell_angle_alpha   82.24894714
_cell_angle_beta   106.27299500
_cell_angle_gamma   86.28902435
_symmetry_Int_Tables_number   1
_chemical_formula_structural   ThSiTe
_chemical_formula_sum   'Th2 Si2 Te2'
_cell_volume   79.85126734
_cell_formula_units_Z   2
loop_
 _symmetry_equiv_pos_site_id
 _symmetry_equiv_pos_as_xyz
  1  'x, y, z'
loop_
 _atom_site_type_symbol
 _atom_site_label
 _atom_site_symmetry_multiplicity
 _atom_site_fract_x
 _atom_site_fract_y
 _atom_site_fract_z
 _atom_site_occupancy
  Th  Th1  1  0.00000000  0.00000000  0.23607835  1.0
  Th  Th2  1  0.89423943  0.84898877  0.81771570  1.0
  Si  Si1  1  0.00000000  0.30092379  0.00000000  1.0
  Si  Si2  1  0.37268335  0.10151434  0.00000000  1.0
  Te  Te1  1  0.26268461  0.25759906  0.48367795  1.0
  Te  Te2  1  0.47807148  0.41569844  0.19687483  1.0
