# generated using pymatgen
data_ThSnPd2
_symmetry_space_group_name_H-M   'P 1'
_cell_length_a   3.45975184
_cell_length_b   2.67246079
_cell_length_c   3.04819942
_cell_angle_alpha   60.50770569
_cell_angle_beta   50.01177216
_cell_angle_gamma   60.19765854
_symmetry_Int_Tables_number   1
_chemical_formula_structural   ThSnPd2
_chemical_formula_sum   'Th1 Sn1 Pd2'
_cell_volume   18.09306348
_cell_formula_units_Z   1
loop_
 _symmetry_equiv_pos_site_id
 _symmetry_equiv_pos_as_xyz
  1  'x, y, z'
loop_
 _atom_site_type_symbol
 _atom_site_label
 _atom_site_symmetry_multiplicity
 _atom_site_fract_x
 _atom_site_fract_y
 _atom_site_fract_z
 _atom_site_occupancy
  Th  Th1  1  0.42745662  0.48597845  0.65651786  1.0
  Sn  Sn1  1  0.00000000  0.00000000  0.00000000  1.0
  Pd  Pd1  1  0.74414140  0.72757196  0.81414288  1.0
  Pd  Pd2  1  0.23373532  0.38795018  0.21033031  1.0
