# generated using pymatgen
data_Ti2GaFe
_symmetry_space_group_name_H-M   'P 1'
_cell_length_a   3.06112719
_cell_length_b   3.22844243
_cell_length_c   2.50810885
_cell_angle_alpha   59.71463776
_cell_angle_beta   56.36384201
_cell_angle_gamma   79.96941376
_symmetry_Int_Tables_number   1
_chemical_formula_structural   Ti2GaFe
_chemical_formula_sum   'Ti2 Ga1 Fe1'
_cell_volume   17.62868678
_cell_formula_units_Z   1
loop_
 _symmetry_equiv_pos_site_id
 _symmetry_equiv_pos_as_xyz
  1  'x, y, z'
loop_
 _atom_site_type_symbol
 _atom_site_label
 _atom_site_symmetry_multiplicity
 _atom_site_fract_x
 _atom_site_fract_y
 _atom_site_fract_z
 _atom_site_occupancy
  Ti  Ti1  1  0.00000000  0.00000000  0.00000000  1.0
  Ti  Ti2  1  0.74667215  0.71207786  0.78744841  1.0
  Ga  Ga1  1  0.26839626  0.32798672  0.26330709  1.0
  Fe  Fe1  1  0.39769435  0.55057806  0.20890844  1.0
