# generated using pymatgen
data_Ti2OsRu
_symmetry_space_group_name_H-M   'P 1'
_cell_length_a   2.94695544
_cell_length_b   2.46402335
_cell_length_c   2.32078362
_cell_angle_alpha   64.83173370
_cell_angle_beta   67.67295074
_cell_angle_gamma   53.03656006
_symmetry_Int_Tables_number   1
_chemical_formula_structural   Ti2OsRu
_chemical_formula_sum   'Ti2 Os1 Ru1'
_cell_volume   12.00578757
_cell_formula_units_Z   1
loop_
 _symmetry_equiv_pos_site_id
 _symmetry_equiv_pos_as_xyz
  1  'x, y, z'
loop_
 _atom_site_type_symbol
 _atom_site_label
 _atom_site_symmetry_multiplicity
 _atom_site_fract_x
 _atom_site_fract_y
 _atom_site_fract_z
 _atom_site_occupancy
  Ti  Ti1  1  0.00000000  0.00000000  0.00000000  1.0
  Ti  Ti2  1  0.46810982  0.45149356  0.52661264  1.0
  Os  Os1  1  0.33522263  0.27693963  0.26563373  1.0
  Ru  Ru1  1  0.63023198  0.65396410  0.55713981  1.0
