# generated using pymatgen
data_Ti2PdRu
_symmetry_space_group_name_H-M   'P 1'
_cell_length_a   3.84531045
_cell_length_b   4.85384512
_cell_length_c   3.54998398
_cell_angle_alpha   61.95002365
_cell_angle_beta   63.37611771
_cell_angle_gamma   63.85606766
_symmetry_Int_Tables_number   1
_chemical_formula_structural   Ti2PdRu
_chemical_formula_sum   'Ti2 Pd1 Ru1'
_cell_volume   50.00698668
_cell_formula_units_Z   1
loop_
 _symmetry_equiv_pos_site_id
 _symmetry_equiv_pos_as_xyz
  1  'x, y, z'
loop_
 _atom_site_type_symbol
 _atom_site_label
 _atom_site_symmetry_multiplicity
 _atom_site_fract_x
 _atom_site_fract_y
 _atom_site_fract_z
 _atom_site_occupancy
  Ti  Ti1  1  0.00000000  0.00000000  0.00000000  1.0
  Ti  Ti2  1  0.47553098  0.62475109  0.67895550  1.0
  Pd  Pd1  1  0.26073694  0.22667417  0.38971514  1.0
  Ru  Ru1  1  0.77556360  0.78877175  0.66323799  1.0
