# generated using pymatgen
data_Ti2ReIr
_symmetry_space_group_name_H-M   'P 1'
_cell_length_a   3.15172052
_cell_length_b   4.72535276
_cell_length_c   2.64803147
_cell_angle_alpha   61.75372696
_cell_angle_beta   63.84443283
_cell_angle_gamma   64.75283813
_symmetry_Int_Tables_number   1
_chemical_formula_structural   Ti2ReIr
_chemical_formula_sum   'Ti2 Re1 Ir1'
_cell_volume   29.97605504
_cell_formula_units_Z   1
loop_
 _symmetry_equiv_pos_site_id
 _symmetry_equiv_pos_as_xyz
  1  'x, y, z'
loop_
 _atom_site_type_symbol
 _atom_site_label
 _atom_site_symmetry_multiplicity
 _atom_site_fract_x
 _atom_site_fract_y
 _atom_site_fract_z
 _atom_site_occupancy
  Ti  Ti1  1  0.00000000  0.00000000  0.00000000  1.0
  Ti  Ti2  1  0.59525734  0.36827350  0.52280951  1.0
  Re  Re1  1  0.79391408  0.76382792  0.64834160  1.0
  Ir  Ir1  1  0.35642835  0.25210601  0.34441763  1.0
