# generated using pymatgen
data_Ti3Pt5
_symmetry_space_group_name_H-M   'P 1'
_cell_length_a   5.72136450
_cell_length_b   4.06603909
_cell_length_c   4.09148264
_cell_angle_alpha   79.41338348
_cell_angle_beta   85.97561646
_cell_angle_gamma   109.07140350
_symmetry_Int_Tables_number   1
_chemical_formula_structural   Ti3Pt5
_chemical_formula_sum   'Ti3 Pt5'
_cell_volume   87.55297418
_cell_formula_units_Z   1
loop_
 _symmetry_equiv_pos_site_id
 _symmetry_equiv_pos_as_xyz
  1  'x, y, z'
loop_
 _atom_site_type_symbol
 _atom_site_label
 _atom_site_symmetry_multiplicity
 _atom_site_fract_x
 _atom_site_fract_y
 _atom_site_fract_z
 _atom_site_occupancy
  Ti  Ti1  1  0.30862176  0.59216315  0.64860451  1.0
  Ti  Ti2  1  0.79405117  0.29177397  0.16371030  1.0
  Ti  Ti3  1  0.00000000  0.16145271  0.20764211  1.0
  Pt  Pt1  1  0.70215827  0.87623441  0.18086258  1.0
  Pt  Pt2  1  0.13207865  0.87013972  0.12613299  1.0
  Pt  Pt3  1  0.75491536  0.65582502  0.61290848  1.0
  Pt  Pt4  1  0.34480703  0.00000000  0.74149245  1.0
  Pt  Pt5  1  0.65370053  0.00000000  0.84270811  1.0
