# generated using pymatgen
data_TiAu
_symmetry_space_group_name_H-M   'P 1'
_cell_length_a   4.14059258
_cell_length_b   2.40598965
_cell_length_c   2.53003430
_cell_angle_alpha   92.84605408
_cell_angle_beta   98.57289124
_cell_angle_gamma   84.55732727
_symmetry_Int_Tables_number   1
_chemical_formula_structural   TiAu
_chemical_formula_sum   'Ti1 Au1'
_cell_volume   24.79463778
_cell_formula_units_Z   1
loop_
 _symmetry_equiv_pos_site_id
 _symmetry_equiv_pos_as_xyz
  1  'x, y, z'
loop_
 _atom_site_type_symbol
 _atom_site_label
 _atom_site_symmetry_multiplicity
 _atom_site_fract_x
 _atom_site_fract_y
 _atom_site_fract_z
 _atom_site_occupancy
  Ti  Ti1  1  0.67541194  0.53399378  0.66194326  1.0
  Au  Au1  1  0.00000000  0.00000000  0.00000000  1.0
