# generated using pymatgen
data_TiBeIr2
_symmetry_space_group_name_H-M   'P 1'
_cell_length_a   4.87636280
_cell_length_b   4.20894098
_cell_length_c   3.91440940
_cell_angle_alpha   49.49174118
_cell_angle_beta   50.81143951
_cell_angle_gamma   49.06085968
_symmetry_Int_Tables_number   1
_chemical_formula_structural   TiBeIr2
_chemical_formula_sum   'Ti1 Be1 Ir2'
_cell_volume   43.06538551
_cell_formula_units_Z   1
loop_
 _symmetry_equiv_pos_site_id
 _symmetry_equiv_pos_as_xyz
  1  'x, y, z'
loop_
 _atom_site_type_symbol
 _atom_site_label
 _atom_site_symmetry_multiplicity
 _atom_site_fract_x
 _atom_site_fract_y
 _atom_site_fract_z
 _atom_site_occupancy
  Ti  Ti1  1  0.60593110  0.68749511  0.75140679  1.0
  Be  Be1  1  0.25722080  0.24860674  0.45718208  1.0
  Ir  Ir1  1  0.00000000  0.00000000  0.00000000  1.0
  Ir  Ir2  1  0.41867307  0.54183304  0.39441594  1.0
