# generated using pymatgen
data_TiCo3
_symmetry_space_group_name_H-M   'P 1'
_cell_length_a   2.79109001
_cell_length_b   2.48597336
_cell_length_c   2.80015230
_cell_angle_alpha   98.84542084
_cell_angle_beta   88.08278656
_cell_angle_gamma   94.93981171
_symmetry_Int_Tables_number   1
_chemical_formula_structural   TiCo3
_chemical_formula_sum   'Ti1 Co3'
_cell_volume   19.12265413
_cell_formula_units_Z   1
loop_
 _symmetry_equiv_pos_site_id
 _symmetry_equiv_pos_as_xyz
  1  'x, y, z'
loop_
 _atom_site_type_symbol
 _atom_site_label
 _atom_site_symmetry_multiplicity
 _atom_site_fract_x
 _atom_site_fract_y
 _atom_site_fract_z
 _atom_site_occupancy
  Ti  Ti1  1  0.00000000  0.00000000  0.00000000  1.0
  Co  Co1  1  0.40077829  0.35162431  0.00000000  1.0
  Co  Co2  1  0.47033906  0.00000000  0.49159142  1.0
  Co  Co3  1  0.00000000  0.36481833  0.57482213  1.0
