# generated using pymatgen
data_TiCrC2
_symmetry_space_group_name_H-M   'P 1'
_cell_length_a   2.96125177
_cell_length_b   2.96125177
_cell_length_c   5.18009516
_cell_angle_alpha   89.99999956
_cell_angle_beta   90.00000030
_cell_angle_gamma   119.99999949
_symmetry_Int_Tables_number   1
_chemical_formula_structural   TiCrC2
_chemical_formula_sum   'Ti1 Cr1 C2'
_cell_volume   39.33861255
_cell_formula_units_Z   1
loop_
 _symmetry_equiv_pos_site_id
 _symmetry_equiv_pos_as_xyz
  1  'x, y, z'
loop_
 _atom_site_type_symbol
 _atom_site_label
 _atom_site_symmetry_multiplicity
 _atom_site_fract_x
 _atom_site_fract_y
 _atom_site_fract_z
 _atom_site_occupancy
  Ti  Ti0  1  0.00000001  0.00000001  0.00000000  1.0
  Cr  Cr1  1  0.99999999  0.99999999  0.50000000  1.0
  C  C2  1  0.66666667  0.33333333  0.26657824  1.0
  C  C3  1  0.33333333  0.66666667  0.73342176  1.0
