# generated using pymatgen
data_TiFe2Si
_symmetry_space_group_name_H-M   'P 1'
_cell_length_a   3.40028834
_cell_length_b   5.80760860
_cell_length_c   2.88990378
_cell_angle_alpha   61.58584213
_cell_angle_beta   66.73713684
_cell_angle_gamma   73.12230682
_symmetry_Int_Tables_number   1
_chemical_formula_structural   TiFe2Si
_chemical_formula_sum   'Ti1 Fe2 Si1'
_cell_volume   45.74115504
_cell_formula_units_Z   1
loop_
 _symmetry_equiv_pos_site_id
 _symmetry_equiv_pos_as_xyz
  1  'x, y, z'
loop_
 _atom_site_type_symbol
 _atom_site_label
 _atom_site_symmetry_multiplicity
 _atom_site_fract_x
 _atom_site_fract_y
 _atom_site_fract_z
 _atom_site_occupancy
  Ti  Ti1  1  0.00000000  0.00000000  0.00000000  1.0
  Fe  Fe1  1  0.79781353  0.69125485  0.85564476  1.0
  Fe  Fe2  1  0.24279475  0.20444033  0.35236359  1.0
  Si  Si1  1  0.36180833  0.57116634  0.42461920  1.0
