# generated using pymatgen
data_TiMn2
_symmetry_space_group_name_H-M   'P 1'
_cell_length_a   2.35424805
_cell_length_b   4.00152493
_cell_length_c   2.56619120
_cell_angle_alpha   61.90124512
_cell_angle_beta   66.59613037
_cell_angle_gamma   62.76161194
_symmetry_Int_Tables_number   1
_chemical_formula_structural   TiMn2
_chemical_formula_sum   'Ti1 Mn2'
_cell_volume   18.44539445
_cell_formula_units_Z   1
loop_
 _symmetry_equiv_pos_site_id
 _symmetry_equiv_pos_as_xyz
  1  'x, y, z'
loop_
 _atom_site_type_symbol
 _atom_site_label
 _atom_site_symmetry_multiplicity
 _atom_site_fract_x
 _atom_site_fract_y
 _atom_site_fract_z
 _atom_site_occupancy
  Ti  Ti1  1  0.50176197  0.49260217  0.60039198  1.0
  Mn  Mn1  1  0.31667006  0.22113153  0.18175450  1.0
  Mn  Mn2  1  0.79001892  0.84114343  0.78870034  1.0
