# generated using pymatgen
data_TiOs
_symmetry_space_group_name_H-M   'P 1'
_cell_length_a   3.43623972
_cell_length_b   2.94410872
_cell_length_c   3.23031640
_cell_angle_alpha   98.95552063
_cell_angle_beta   81.15706635
_cell_angle_gamma   92.05636597
_symmetry_Int_Tables_number   1
_chemical_formula_structural   TiOs
_chemical_formula_sum   'Ti1 Os1'
_cell_volume   31.89552870
_cell_formula_units_Z   1
loop_
 _symmetry_equiv_pos_site_id
 _symmetry_equiv_pos_as_xyz
  1  'x, y, z'
loop_
 _atom_site_type_symbol
 _atom_site_label
 _atom_site_symmetry_multiplicity
 _atom_site_fract_x
 _atom_site_fract_y
 _atom_site_fract_z
 _atom_site_occupancy
  Ti  Ti1  1  0.52517474  0.48433489  0.55814797  1.0
  Os  Os1  1  0.00000000  0.00000000  0.00000000  1.0
