# generated using pymatgen
data_TiPt4
_symmetry_space_group_name_H-M   'P 1'
_cell_length_a   3.08736062
_cell_length_b   8.11608219
_cell_length_c   3.96820426
_cell_angle_alpha   90.53302765
_cell_angle_beta   93.44490814
_cell_angle_gamma   122.90064240
_symmetry_Int_Tables_number   1
_chemical_formula_structural   TiPt4
_chemical_formula_sum   'Ti2 Pt8'
_cell_volume   83.22951958
_cell_formula_units_Z   2
loop_
 _symmetry_equiv_pos_site_id
 _symmetry_equiv_pos_as_xyz
  1  'x, y, z'
loop_
 _atom_site_type_symbol
 _atom_site_label
 _atom_site_symmetry_multiplicity
 _atom_site_fract_x
 _atom_site_fract_y
 _atom_site_fract_z
 _atom_site_occupancy
  Ti  Ti1  1  0.26635116  0.70197964  0.70851576  1.0
  Ti  Ti2  1  0.65541917  0.31004182  0.19492307  1.0
  Pt  Pt1  1  0.45015168  0.31147164  0.17012128  1.0
  Pt  Pt2  1  0.62051743  0.80869341  0.36801088  1.0
  Pt  Pt3  1  0.16570228  0.78658307  0.38940474  1.0
  Pt  Pt4  1  0.83883250  0.56380862  0.40494466  1.0
  Pt  Pt5  1  0.46123874  0.00000000  0.89045012  1.0
  Pt  Pt6  1  0.54308313  0.14212239  0.64728165  1.0
  Pt  Pt7  1  0.00000000  0.29444531  0.00000000  1.0
  Pt  Pt8  1  0.00000000  0.00000000  0.00000000  1.0
