# generated using pymatgen
data_TiRe2Tc
_symmetry_space_group_name_H-M   'P 1'
_cell_length_a   2.70565271
_cell_length_b   2.49463153
_cell_length_c   2.01122928
_cell_angle_alpha   69.90309143
_cell_angle_beta   59.97131348
_cell_angle_gamma   56.45186234
_symmetry_Int_Tables_number   1
_chemical_formula_structural   TiRe2Tc
_chemical_formula_sum   'Ti1 Re2 Tc1'
_cell_volume   9.75274104
_cell_formula_units_Z   1
loop_
 _symmetry_equiv_pos_site_id
 _symmetry_equiv_pos_as_xyz
  1  'x, y, z'
loop_
 _atom_site_type_symbol
 _atom_site_label
 _atom_site_symmetry_multiplicity
 _atom_site_fract_x
 _atom_site_fract_y
 _atom_site_fract_z
 _atom_site_occupancy
  Ti  Ti1  1  0.55995762  0.75796908  0.77953649  1.0
  Re  Re1  1  0.38605922  0.45416021  0.39248407  1.0
  Re  Re2  1  0.38071823  0.57432282  0.68126649  1.0
  Tc  Tc1  1  0.00000000  0.00000000  0.00000000  1.0
