# generated using pymatgen
data_TiReTc2
_symmetry_space_group_name_H-M   'P 1'
_cell_length_a   3.63971806
_cell_length_b   3.13152957
_cell_length_c   3.50361800
_cell_angle_alpha   73.50124359
_cell_angle_beta   74.17446899
_cell_angle_gamma   52.84395218
_symmetry_Int_Tables_number   1
_chemical_formula_structural   TiReTc2
_chemical_formula_sum   'Ti1 Re1 Tc2'
_cell_volume   30.24788684
_cell_formula_units_Z   1
loop_
 _symmetry_equiv_pos_site_id
 _symmetry_equiv_pos_as_xyz
  1  'x, y, z'
loop_
 _atom_site_type_symbol
 _atom_site_label
 _atom_site_symmetry_multiplicity
 _atom_site_fract_x
 _atom_site_fract_y
 _atom_site_fract_z
 _atom_site_occupancy
  Ti  Ti1  1  0.74835962  0.80458403  0.78431070  1.0
  Re  Re1  1  0.39520070  0.66503859  0.26605508  1.0
  Tc  Tc1  1  0.37979800  0.82436013  0.52157748  1.0
  Tc  Tc2  1  0.00000000  0.00000000  0.00000000  1.0
