# generated using pymatgen
data_TiSiOs2
_symmetry_space_group_name_H-M   'P 1'
_cell_length_a   3.12945795
_cell_length_b   3.73077989
_cell_length_c   2.29499531
_cell_angle_alpha   54.94761276
_cell_angle_beta   60.49311829
_cell_angle_gamma   57.81546783
_symmetry_Int_Tables_number   1
_chemical_formula_structural   TiSiOs2
_chemical_formula_sum   'Ti1 Si1 Os2'
_cell_volume   17.87826848
_cell_formula_units_Z   1
loop_
 _symmetry_equiv_pos_site_id
 _symmetry_equiv_pos_as_xyz
  1  'x, y, z'
loop_
 _atom_site_type_symbol
 _atom_site_label
 _atom_site_symmetry_multiplicity
 _atom_site_fract_x
 _atom_site_fract_y
 _atom_site_fract_z
 _atom_site_occupancy
  Ti  Ti1  1  0.85488176  0.82940364  0.75270230  1.0
  Si  Si1  1  0.21269786  0.21475354  0.23341730  1.0
  Os  Os1  1  0.00000000  0.00000000  0.00000000  1.0
  Os  Os2  1  0.67252815  0.53082436  0.60303909  1.0
