# generated using pymatgen
data_TiTc2W
_symmetry_space_group_name_H-M   'P 1'
_cell_length_a   3.24525905
_cell_length_b   4.86509705
_cell_length_c   4.16393137
_cell_angle_alpha   63.13613892
_cell_angle_beta   72.00289917
_cell_angle_gamma   56.92102051
_symmetry_Int_Tables_number   1
_chemical_formula_structural   TiTc2W
_chemical_formula_sum   'Ti1 Tc2 W1'
_cell_volume   48.97066757
_cell_formula_units_Z   1
loop_
 _symmetry_equiv_pos_site_id
 _symmetry_equiv_pos_as_xyz
  1  'x, y, z'
loop_
 _atom_site_type_symbol
 _atom_site_label
 _atom_site_symmetry_multiplicity
 _atom_site_fract_x
 _atom_site_fract_y
 _atom_site_fract_z
 _atom_site_occupancy
  Ti  Ti1  1  0.61417592  0.46507376  0.34321699  1.0
  Tc  Tc1  1  0.16201356  0.37406772  0.00000000  1.0
  Tc  Tc2  1  0.72777843  0.77592158  0.82515532  1.0
  W  W1  1  0.00000000  0.00000000  0.00000000  1.0
