# generated using pymatgen
data_TmWN2
_symmetry_space_group_name_H-M   'P 1'
_cell_length_a   3.07608973
_cell_length_b   3.07608933
_cell_length_c   5.88601864
_cell_angle_alpha   89.99999884
_cell_angle_beta   89.99999715
_cell_angle_gamma   120.00000306
_symmetry_Int_Tables_number   1
_chemical_formula_structural   TmWN2
_chemical_formula_sum   'Tm1 W1 N2'
_cell_volume   48.23365741
_cell_formula_units_Z   1
loop_
 _symmetry_equiv_pos_site_id
 _symmetry_equiv_pos_as_xyz
  1  'x, y, z'
loop_
 _atom_site_type_symbol
 _atom_site_label
 _atom_site_symmetry_multiplicity
 _atom_site_fract_x
 _atom_site_fract_y
 _atom_site_fract_z
 _atom_site_occupancy
  Tm  Tm0  1  0.99999996  0.00000000  0.99999999  1.0
  W  W1  1  0.00000004  0.00000002  0.50000000  1.0
  N  N2  1  0.66666667  0.33333333  0.72077729  1.0
  N  N3  1  0.33333333  0.66666667  0.27922271  1.0
