# generated using pymatgen
data_U(NiB)2
_symmetry_space_group_name_H-M   'P 1'
_cell_length_a   6.74989748
_cell_length_b   3.46628189
_cell_length_c   3.36068487
_cell_angle_alpha   152.26272583
_cell_angle_beta   154.01695251
_cell_angle_gamma   36.10432816
_symmetry_Int_Tables_number   1
_chemical_formula_structural   U(NiB)2
_chemical_formula_sum   'U1 Ni2 B2'
_cell_volume   16.00356319
_cell_formula_units_Z   1
loop_
 _symmetry_equiv_pos_site_id
 _symmetry_equiv_pos_as_xyz
  1  'x, y, z'
loop_
 _atom_site_type_symbol
 _atom_site_label
 _atom_site_symmetry_multiplicity
 _atom_site_fract_x
 _atom_site_fract_y
 _atom_site_fract_z
 _atom_site_occupancy
  U  U1  1  0.75797081  0.45087701  0.00000000  1.0
  Ni  Ni1  1  0.60952723  0.27796894  0.51379740  1.0
  Ni  Ni2  1  0.30727732  0.79831970  0.61820257  1.0
  B  B1  1  0.14140815  0.19652802  0.00000000  1.0
  B  B2  1  0.82579529  0.87614691  0.00000000  1.0
