# generated using pymatgen
data_U(SiRu)2
_symmetry_space_group_name_H-M   'P 1'
_cell_length_a   4.47860956
_cell_length_b   3.29174972
_cell_length_c   4.38254499
_cell_angle_alpha   120.87409210
_cell_angle_beta   115.95447540
_cell_angle_gamma   95.84255981
_symmetry_Int_Tables_number   1
_chemical_formula_structural   U(SiRu)2
_chemical_formula_sum   'U1 Si2 Ru2'
_cell_volume   45.18253808
_cell_formula_units_Z   1
loop_
 _symmetry_equiv_pos_site_id
 _symmetry_equiv_pos_as_xyz
  1  'x, y, z'
loop_
 _atom_site_type_symbol
 _atom_site_label
 _atom_site_symmetry_multiplicity
 _atom_site_fract_x
 _atom_site_fract_y
 _atom_site_fract_z
 _atom_site_occupancy
  U  U1  1  0.00000000  0.00000000  0.00000000  1.0
  Si  Si1  1  0.62437212  0.68523884  0.17592984  1.0
  Si  Si2  1  0.44233310  0.27848515  0.75787842  1.0
  Ru  Ru1  1  0.73353416  0.19809985  0.53707445  1.0
  Ru  Ru2  1  0.15319157  0.67552698  0.65555525  1.0
