# generated using pymatgen
data_UIr2
_symmetry_space_group_name_H-M   'P 1'
_cell_length_a   3.93797374
_cell_length_b   4.60747576
_cell_length_c   5.04383707
_cell_angle_alpha   64.15975952
_cell_angle_beta   67.01753998
_cell_angle_gamma   45.66873169
_symmetry_Int_Tables_number   1
_chemical_formula_structural   UIr2
_chemical_formula_sum   'U2 Ir4'
_cell_volume   58.39064220
_cell_formula_units_Z   2
loop_
 _symmetry_equiv_pos_site_id
 _symmetry_equiv_pos_as_xyz
  1  'x, y, z'
loop_
 _atom_site_type_symbol
 _atom_site_label
 _atom_site_symmetry_multiplicity
 _atom_site_fract_x
 _atom_site_fract_y
 _atom_site_fract_z
 _atom_site_occupancy
  U  U1  1  0.59256738  0.75159574  0.60200864  1.0
  U  U2  1  0.62608755  0.39176789  0.42151725  1.0
  Ir  Ir1  1  0.00000000  0.50667924  0.00000000  1.0
  Ir  Ir2  1  0.13116285  0.00000000  0.45291087  1.0
  Ir  Ir3  1  0.72144186  0.00000000  0.00000000  1.0
  Ir  Ir4  1  0.12968022  0.00000000  0.13297731  1.0
