# generated using pymatgen
data_V(CrC)2
_symmetry_space_group_name_H-M   'P 1'
_cell_length_a   2.83513808
_cell_length_b   2.41401386
_cell_length_c   5.97394991
_cell_angle_alpha   91.56574249
_cell_angle_beta   101.14809418
_cell_angle_gamma   151.88746643
_symmetry_Int_Tables_number   1
_chemical_formula_structural   V(CrC)2
_chemical_formula_sum   'V2 Cr4 C4'
_cell_volume   17.08360824
_cell_formula_units_Z   2
loop_
 _symmetry_equiv_pos_site_id
 _symmetry_equiv_pos_as_xyz
  1  'x, y, z'
loop_
 _atom_site_type_symbol
 _atom_site_label
 _atom_site_symmetry_multiplicity
 _atom_site_fract_x
 _atom_site_fract_y
 _atom_site_fract_z
 _atom_site_occupancy
  V  V1  1  0.71981901  0.32452291  0.72647238  1.0
  V  V2  1  0.28609967  0.68851000  0.17863822  1.0
  Cr  Cr1  1  0.79586023  0.00000000  0.65936887  1.0
  Cr  Cr2  1  0.25032276  0.78185010  0.54573971  1.0
  Cr  Cr3  1  0.20705295  0.90491939  0.21669254  1.0
  Cr  Cr4  1  0.90601015  0.21706697  0.92631143  1.0
  C  C1  1  0.72284555  0.25302932  0.27450010  1.0
  C  C2  1  0.25589654  0.85516739  0.88527858  1.0
  C  C3  1  0.29223326  0.71118528  0.54248351  1.0
  C  C4  1  0.34491146  0.15139402  0.00000000  1.0
