# generated using pymatgen
data_V2CrFe
_symmetry_space_group_name_H-M   'P 1'
_cell_length_a   2.92773604
_cell_length_b   2.04701185
_cell_length_c   2.48767567
_cell_angle_alpha   53.26041794
_cell_angle_beta   49.76205826
_cell_angle_gamma   89.40264893
_symmetry_Int_Tables_number   1
_chemical_formula_structural   V2CrFe
_chemical_formula_sum   'V2 Cr1 Fe1'
_cell_volume   7.19440617
_cell_formula_units_Z   1
loop_
 _symmetry_equiv_pos_site_id
 _symmetry_equiv_pos_as_xyz
  1  'x, y, z'
loop_
 _atom_site_type_symbol
 _atom_site_label
 _atom_site_symmetry_multiplicity
 _atom_site_fract_x
 _atom_site_fract_y
 _atom_site_fract_z
 _atom_site_occupancy
  V  V1  1  0.50137180  0.65300345  0.25754189  1.0
  V  V2  1  0.25042003  0.91796666  0.14855167  1.0
  Cr  Cr1  1  0.20578390  0.22014311  0.15932345  1.0
  Fe  Fe1  1  0.83662093  0.68136787  0.77972388  1.0
