# generated using pymatgen
data_V2Cr
_symmetry_space_group_name_H-M   'P 1'
_cell_length_a   1.39646423
_cell_length_b   2.64923763
_cell_length_c   1.84599710
_cell_angle_alpha   48.34729004
_cell_angle_beta   72.13211823
_cell_angle_gamma   49.67013168
_symmetry_Int_Tables_number   1
_chemical_formula_structural   V2Cr
_chemical_formula_sum   'V2 Cr1'
_cell_volume   3.79780286
_cell_formula_units_Z   1
loop_
 _symmetry_equiv_pos_site_id
 _symmetry_equiv_pos_as_xyz
  1  'x, y, z'
loop_
 _atom_site_type_symbol
 _atom_site_label
 _atom_site_symmetry_multiplicity
 _atom_site_fract_x
 _atom_site_fract_y
 _atom_site_fract_z
 _atom_site_occupancy
  V  V1  1  0.37879276  0.33574909  0.45783752  1.0
  V  V2  1  0.00000000  0.92083323  0.00000000  1.0
  Cr  Cr1  1  0.22931126  0.27537200  0.00000000  1.0
