# generated using pymatgen
data_V2CrRe
_symmetry_space_group_name_H-M   'P 1'
_cell_length_a   3.01736212
_cell_length_b   3.45240164
_cell_length_c   4.32630396
_cell_angle_alpha   67.59271240
_cell_angle_beta   68.41577148
_cell_angle_gamma   45.20706940
_symmetry_Int_Tables_number   1
_chemical_formula_structural   V2CrRe
_chemical_formula_sum   'V2 Cr1 Re1'
_cell_volume   29.22723646
_cell_formula_units_Z   1
loop_
 _symmetry_equiv_pos_site_id
 _symmetry_equiv_pos_as_xyz
  1  'x, y, z'
loop_
 _atom_site_type_symbol
 _atom_site_label
 _atom_site_symmetry_multiplicity
 _atom_site_fract_x
 _atom_site_fract_y
 _atom_site_fract_z
 _atom_site_occupancy
  V  V1  1  0.45676655  0.50781727  0.53170586  1.0
  V  V2  1  0.00000000  0.00000000  0.00000000  1.0
  Cr  Cr1  1  0.20750728  0.23697409  0.29654691  1.0
  Re  Re1  1  0.78940094  0.64730239  0.88007367  1.0
