# generated using pymatgen
data_V2Ir
_symmetry_space_group_name_H-M   'P 1'
_cell_length_a   3.48883200
_cell_length_b   4.44712782
_cell_length_c   3.47411394
_cell_angle_alpha   100.47374725
_cell_angle_beta   108.81051636
_cell_angle_gamma   103.60943604
_symmetry_Int_Tables_number   1
_chemical_formula_structural   V2Ir
_chemical_formula_sum   'V6 Ir3'
_cell_volume   47.60591743
_cell_formula_units_Z   3
loop_
 _symmetry_equiv_pos_site_id
 _symmetry_equiv_pos_as_xyz
  1  'x, y, z'
loop_
 _atom_site_type_symbol
 _atom_site_label
 _atom_site_symmetry_multiplicity
 _atom_site_fract_x
 _atom_site_fract_y
 _atom_site_fract_z
 _atom_site_occupancy
  V  V1  1  0.68622589  0.33416110  0.00000000  1.0
  V  V2  1  0.33676103  0.70574892  0.00000000  1.0
  V  V3  1  0.19848481  0.00000000  0.75578749  1.0
  V  V4  1  0.76274276  0.00000000  0.31937596  1.0
  V  V5  1  0.00000000  0.70702112  0.13444477  1.0
  V  V6  1  0.00000000  0.45179433  0.79947948  1.0
  Ir  Ir1  1  0.37580413  0.62861449  0.67630291  1.0
  Ir  Ir2  1  0.00000000  0.00000000  0.10407269  1.0
  Ir  Ir3  1  0.00000000  0.00000000  0.00000000  1.0
