# generated using pymatgen
data_V2PdRu
_symmetry_space_group_name_H-M   'P 1'
_cell_length_a   2.00671268
_cell_length_b   4.62282372
_cell_length_c   1.65726566
_cell_angle_alpha   55.67738342
_cell_angle_beta   56.58509827
_cell_angle_gamma   51.64099503
_symmetry_Int_Tables_number   1
_chemical_formula_structural   V2PdRu
_chemical_formula_sum   'V2 Pd1 Ru1'
_cell_volume   9.46556911
_cell_formula_units_Z   1
loop_
 _symmetry_equiv_pos_site_id
 _symmetry_equiv_pos_as_xyz
  1  'x, y, z'
loop_
 _atom_site_type_symbol
 _atom_site_label
 _atom_site_symmetry_multiplicity
 _atom_site_fract_x
 _atom_site_fract_y
 _atom_site_fract_z
 _atom_site_occupancy
  V  V1  1  0.49609217  0.41048741  0.12168345  1.0
  V  V2  1  0.70491803  0.79241896  0.73898309  1.0
  Pd  Pd1  1  0.55709028  0.49478114  0.63037044  1.0
  Ru  Ru1  1  0.00000000  0.00000000  0.00000000  1.0
