# generated using pymatgen
data_V2ReOs
_symmetry_space_group_name_H-M   'P 1'
_cell_length_a   2.46926713
_cell_length_b   4.36272144
_cell_length_c   2.54261303
_cell_angle_alpha   49.08849335
_cell_angle_beta   51.22724915
_cell_angle_gamma   46.89125443
_symmetry_Int_Tables_number   1
_chemical_formula_structural   V2ReOs
_chemical_formula_sum   'V2 Re1 Os1'
_cell_volume   14.29756372
_cell_formula_units_Z   1
loop_
 _symmetry_equiv_pos_site_id
 _symmetry_equiv_pos_as_xyz
  1  'x, y, z'
loop_
 _atom_site_type_symbol
 _atom_site_label
 _atom_site_symmetry_multiplicity
 _atom_site_fract_x
 _atom_site_fract_y
 _atom_site_fract_z
 _atom_site_occupancy
  V  V1  1  0.39457431  0.18609875  0.23677963  1.0
  V  V2  1  0.72918761  0.76549643  0.75653160  1.0
  Re  Re1  1  0.66345704  0.42703861  0.52835536  1.0
  Os  Os1  1  0.00000000  0.00000000  0.00000000  1.0
