# generated using pymatgen
data_V2TcOs
_symmetry_space_group_name_H-M   'P 1'
_cell_length_a   2.88002300
_cell_length_b   2.35920811
_cell_length_c   3.87293029
_cell_angle_alpha   64.66262054
_cell_angle_beta   71.05463409
_cell_angle_gamma   57.44101715
_symmetry_Int_Tables_number   1
_chemical_formula_structural   V2TcOs
_chemical_formula_sum   'V2 Tc1 Os1'
_cell_volume   19.89126087
_cell_formula_units_Z   1
loop_
 _symmetry_equiv_pos_site_id
 _symmetry_equiv_pos_as_xyz
  1  'x, y, z'
loop_
 _atom_site_type_symbol
 _atom_site_label
 _atom_site_symmetry_multiplicity
 _atom_site_fract_x
 _atom_site_fract_y
 _atom_site_fract_z
 _atom_site_occupancy
  V  V1  1  0.70302671  0.48973891  0.57961005  1.0
  V  V2  1  0.15813920  0.94898558  0.87779188  1.0
  Tc  Tc1  1  0.76536381  0.65239763  0.77292752  1.0
  Os  Os1  1  0.41704103  0.14238879  0.16164610  1.0
