# generated using pymatgen
data_V3B2
_symmetry_space_group_name_H-M   'P 1'
_cell_length_a   1.58890522
_cell_length_b   2.02193141
_cell_length_c   2.37682939
_cell_angle_alpha   100.17923737
_cell_angle_beta   70.85105133
_cell_angle_gamma   89.58988190
_symmetry_Int_Tables_number   1
_chemical_formula_structural   V3B2
_chemical_formula_sum   'V6 B4'
_cell_volume   7.08245378
_cell_formula_units_Z   2
loop_
 _symmetry_equiv_pos_site_id
 _symmetry_equiv_pos_as_xyz
  1  'x, y, z'
loop_
 _atom_site_type_symbol
 _atom_site_label
 _atom_site_symmetry_multiplicity
 _atom_site_fract_x
 _atom_site_fract_y
 _atom_site_fract_z
 _atom_site_occupancy
  V  V1  1  0.00000000  0.00000000  0.00000000  1.0
  V  V2  1  0.00000000  0.27886733  0.66546428  1.0
  V  V3  1  0.59765029  0.86784571  0.19696298  1.0
  V  V4  1  0.48220107  0.52121997  0.76946265  1.0
  V  V5  1  0.61553526  0.44765273  0.00000000  1.0
  V  V6  1  0.35024861  0.33769351  0.74371976  1.0
  B  B1  1  0.00000000  0.61692411  0.00000000  1.0
  B  B2  1  0.00000000  0.93016148  0.52834004  1.0
  B  B3  1  0.00000000  0.12315500  0.50631076  1.0
  B  B4  1  0.00000000  0.00000000  0.93305272  1.0
