# generated using pymatgen
data_V3B4
_symmetry_space_group_name_H-M   'P 1'
_cell_length_a   1.73692548
_cell_length_b   2.13661599
_cell_length_c   4.24528837
_cell_angle_alpha   90.11250305
_cell_angle_beta   100.33289337
_cell_angle_gamma   74.31829071
_symmetry_Int_Tables_number   1
_chemical_formula_structural   V3B4
_chemical_formula_sum   'V3 B4'
_cell_volume   14.90443821
_cell_formula_units_Z   1
loop_
 _symmetry_equiv_pos_site_id
 _symmetry_equiv_pos_as_xyz
  1  'x, y, z'
loop_
 _atom_site_type_symbol
 _atom_site_label
 _atom_site_symmetry_multiplicity
 _atom_site_fract_x
 _atom_site_fract_y
 _atom_site_fract_z
 _atom_site_occupancy
  V  V1  1  0.75999141  0.00000000  0.18555799  1.0
  V  V2  1  0.29048789  0.00000000  0.20004943  1.0
  V  V3  1  0.62816393  0.84422076  0.64085668  1.0
  B  B1  1  0.73275030  0.72581017  0.19454736  1.0
  B  B2  1  0.26654327  0.53256559  0.90462744  1.0
  B  B3  1  0.16019714  0.42302540  0.10319686  1.0
  B  B4  1  0.85512078  0.51099902  0.65568346  1.0
