# generated using pymatgen
data_V3B5
_symmetry_space_group_name_H-M   'P 1'
_cell_length_a   2.07813120
_cell_length_b   3.80517507
_cell_length_c   5.36106157
_cell_angle_alpha   100.37873840
_cell_angle_beta   107.39035034
_cell_angle_gamma   111.02577972
_symmetry_Int_Tables_number   1
_chemical_formula_structural   V3B5
_chemical_formula_sum   'V3 B5'
_cell_volume   35.74267394
_cell_formula_units_Z   1
loop_
 _symmetry_equiv_pos_site_id
 _symmetry_equiv_pos_as_xyz
  1  'x, y, z'
loop_
 _atom_site_type_symbol
 _atom_site_label
 _atom_site_symmetry_multiplicity
 _atom_site_fract_x
 _atom_site_fract_y
 _atom_site_fract_z
 _atom_site_occupancy
  V  V1  1  0.18594408  0.00000000  0.00000000  1.0
  V  V2  1  0.00000000  0.19850034  0.38017181  1.0
  V  V3  1  0.76947057  0.71371806  0.67675608  1.0
  B  B1  1  0.77595097  0.44588923  0.37802649  1.0
  B  B2  1  0.39688170  0.32536817  0.76013255  1.0
  B  B3  1  0.00000000  0.51757580  0.55217987  1.0
  B  B4  1  0.91845846  0.45413357  0.89257133  1.0
  B  B5  1  0.00000000  0.00000000  0.00000000  1.0
