# generated using pymatgen
data_V3Os
_symmetry_space_group_name_H-M   'P 1'
_cell_length_a   2.62434959
_cell_length_b   3.64559841
_cell_length_c   2.84232378
_cell_angle_alpha   71.62074280
_cell_angle_beta   75.90679169
_cell_angle_gamma   76.59973907
_symmetry_Int_Tables_number   1
_chemical_formula_structural   V3Os
_chemical_formula_sum   'V3 Os1'
_cell_volume   24.67221635
_cell_formula_units_Z   1
loop_
 _symmetry_equiv_pos_site_id
 _symmetry_equiv_pos_as_xyz
  1  'x, y, z'
loop_
 _atom_site_type_symbol
 _atom_site_label
 _atom_site_symmetry_multiplicity
 _atom_site_fract_x
 _atom_site_fract_y
 _atom_site_fract_z
 _atom_site_occupancy
  V  V1  1  0.00000000  0.00000000  0.00000000  1.0
  V  V2  1  0.38220647  0.34778273  0.61041760  1.0
  V  V3  1  0.32540134  0.32692370  0.27718776  1.0
  Os  Os1  1  0.57968485  0.64584076  0.55489659  1.0
