# generated using pymatgen
data_V3Re
_symmetry_space_group_name_H-M   'P 1'
_cell_length_a   2.51784158
_cell_length_b   2.14735031
_cell_length_c   0.84180087
_cell_angle_alpha   55.99732208
_cell_angle_beta   47.13412094
_cell_angle_gamma   54.30786896
_symmetry_Int_Tables_number   1
_chemical_formula_structural   V3Re
_chemical_formula_sum   'V3 Re1'
_cell_volume   2.60661447
_cell_formula_units_Z   1
loop_
 _symmetry_equiv_pos_site_id
 _symmetry_equiv_pos_as_xyz
  1  'x, y, z'
loop_
 _atom_site_type_symbol
 _atom_site_label
 _atom_site_symmetry_multiplicity
 _atom_site_fract_x
 _atom_site_fract_y
 _atom_site_fract_z
 _atom_site_occupancy
  V  V1  1  0.95567852  0.95918584  0.00000000  1.0
  V  V2  1  0.54780561  0.59553522  0.58379084  1.0
  V  V3  1  0.21090624  0.30899739  0.17860112  1.0
  Re  Re1  1  0.72309840  0.81235868  0.70659328  1.0
