# generated using pymatgen
data_VAsN2
_symmetry_space_group_name_H-M   'P 1'
_cell_length_a   2.90553087
_cell_length_b   6.71523418
_cell_length_c   5.02331713
_cell_angle_alpha   68.91058763
_cell_angle_beta   90.01659341
_cell_angle_gamma   77.52308850
_symmetry_Int_Tables_number   1
_chemical_formula_structural   VAsN2
_chemical_formula_sum   'V2 As2 N4'
_cell_volume   88.95893063
_cell_formula_units_Z   2
loop_
 _symmetry_equiv_pos_site_id
 _symmetry_equiv_pos_as_xyz
  1  'x, y, z'
loop_
 _atom_site_type_symbol
 _atom_site_label
 _atom_site_symmetry_multiplicity
 _atom_site_fract_x
 _atom_site_fract_y
 _atom_site_fract_z
 _atom_site_occupancy
  V  V0  1  0.49999364  0.00000000  0.50000000  1.0
  V  V1  1  0.99999573  0.99999999  0.99999998  1.0
  As  As2  1  0.25001186  0.49999824  0.25000818  1.0
  As  As3  1  0.75000613  0.50000170  0.74999186  1.0
  N  N4  1  0.40859439  0.18249980  0.07862280  1.0
  N  N5  1  0.90858711  0.18250777  0.57861464  1.0
  N  N6  1  0.59139117  0.81750024  0.92137717  1.0
  N  N7  1  0.09139897  0.81749226  0.42138537  1.0
