# generated using pymatgen
data_VB2
_symmetry_space_group_name_H-M   'P 1'
_cell_length_a   2.44857907
_cell_length_b   6.86293316
_cell_length_c   4.57037497
_cell_angle_alpha   86.59177399
_cell_angle_beta   88.03238678
_cell_angle_gamma   131.54994202
_symmetry_Int_Tables_number   1
_chemical_formula_structural   VB2
_chemical_formula_sum   'V1 B2'
_cell_volume   57.09528732
_cell_formula_units_Z   1
loop_
 _symmetry_equiv_pos_site_id
 _symmetry_equiv_pos_as_xyz
  1  'x, y, z'
loop_
 _atom_site_type_symbol
 _atom_site_label
 _atom_site_symmetry_multiplicity
 _atom_site_fract_x
 _atom_site_fract_y
 _atom_site_fract_z
 _atom_site_occupancy
  V  V1  1  0.00000000  0.00000000  0.00000000  1.0
  B  B1  1  0.21818793  0.71961993  0.57789916  1.0
  B  B2  1  0.63617665  0.48286048  0.53602791  1.0
