# generated using pymatgen
data_VC
_symmetry_space_group_name_H-M   'P 1'
_cell_length_a   2.71282697
_cell_length_b   2.52824759
_cell_length_c   1.99974191
_cell_angle_alpha   64.46839905
_cell_angle_beta   63.14863968
_cell_angle_gamma   47.95249939
_symmetry_Int_Tables_number   1
_chemical_formula_structural   VC
_chemical_formula_sum   'V1 C1'
_cell_volume   8.91438631
_cell_formula_units_Z   1
loop_
 _symmetry_equiv_pos_site_id
 _symmetry_equiv_pos_as_xyz
  1  'x, y, z'
loop_
 _atom_site_type_symbol
 _atom_site_label
 _atom_site_symmetry_multiplicity
 _atom_site_fract_x
 _atom_site_fract_y
 _atom_site_fract_z
 _atom_site_occupancy
  V  V1  1  0.00000000  0.00000000  0.00000000  1.0
  C  C1  1  0.42576531  0.51192462  0.57299107  1.0
