# generated using pymatgen
data_VCr5C4
_symmetry_space_group_name_H-M   'P 1'
_cell_length_a   5.27034426
_cell_length_b   7.37976646
_cell_length_c   7.09895277
_cell_angle_alpha   90.49655914
_cell_angle_beta   93.90531158
_cell_angle_gamma   152.72337341
_symmetry_Int_Tables_number   1
_chemical_formula_structural   VCr5C4
_chemical_formula_sum   'V1 Cr5 C4'
_cell_volume   124.78769653
_cell_formula_units_Z   1
loop_
 _symmetry_equiv_pos_site_id
 _symmetry_equiv_pos_as_xyz
  1  'x, y, z'
loop_
 _atom_site_type_symbol
 _atom_site_label
 _atom_site_symmetry_multiplicity
 _atom_site_fract_x
 _atom_site_fract_y
 _atom_site_fract_z
 _atom_site_occupancy
  V  V1  1  0.64388788  0.19221100  0.51032406  1.0
  Cr  Cr1  1  0.47144964  0.62360448  0.21595725  1.0
  Cr  Cr2  1  0.87998819  0.00000000  0.73752868  1.0
  Cr  Cr3  1  0.20756787  0.89038408  0.51740289  1.0
  Cr  Cr4  1  0.10405490  0.77305806  0.00000000  1.0
  Cr  Cr5  1  0.83499414  0.13694459  0.96108729  1.0
  C  C1  1  0.22498336  0.14400685  0.28311646  1.0
  C  C2  1  0.00000000  0.62990117  0.53090090  1.0
  C  C3  1  0.65023035  0.00000000  0.26500171  1.0
  C  C4  1  0.41357741  0.29710889  0.00000000  1.0
