# generated using pymatgen
data_VFe2Si
_symmetry_space_group_name_H-M   'P 1'
_cell_length_a   1.67328727
_cell_length_b   2.81873155
_cell_length_c   2.27499151
_cell_angle_alpha   58.53197861
_cell_angle_beta   62.09032059
_cell_angle_gamma   67.95605469
_symmetry_Int_Tables_number   1
_chemical_formula_structural   VFe2Si
_chemical_formula_sum   'V1 Fe2 Si1'
_cell_volume   7.96450848
_cell_formula_units_Z   1
loop_
 _symmetry_equiv_pos_site_id
 _symmetry_equiv_pos_as_xyz
  1  'x, y, z'
loop_
 _atom_site_type_symbol
 _atom_site_label
 _atom_site_symmetry_multiplicity
 _atom_site_fract_x
 _atom_site_fract_y
 _atom_site_fract_z
 _atom_site_occupancy
  V  V1  1  0.00000000  0.00000000  0.00000000  1.0
  Fe  Fe1  1  0.84892941  0.79017377  0.77512383  1.0
  Fe  Fe2  1  0.38600287  0.32139215  0.47898322  1.0
  Si  Si1  1  0.61263955  0.51842153  0.69163585  1.0
