# generated using pymatgen
data_VHRu2
_symmetry_space_group_name_H-M   'P 1'
_cell_length_a   3.26064157
_cell_length_b   3.07438588
_cell_length_c   2.42563891
_cell_angle_alpha   59.57865906
_cell_angle_beta   58.99759293
_cell_angle_gamma   49.98688507
_symmetry_Int_Tables_number   1
_chemical_formula_structural   VHRu2
_chemical_formula_sum   'V1 H1 Ru2'
_cell_volume   15.38410014
_cell_formula_units_Z   1
loop_
 _symmetry_equiv_pos_site_id
 _symmetry_equiv_pos_as_xyz
  1  'x, y, z'
loop_
 _atom_site_type_symbol
 _atom_site_label
 _atom_site_symmetry_multiplicity
 _atom_site_fract_x
 _atom_site_fract_y
 _atom_site_fract_z
 _atom_site_occupancy
  V  V1  1  0.71216530  0.75532162  0.51838392  1.0
  H  H1  1  0.31889880  0.15257782  0.31488425  1.0
  Ru  Ru1  1  0.00000000  0.00000000  0.00000000  1.0
  Ru  Ru2  1  0.68480581  0.47306755  0.50339180  1.0
