# generated using pymatgen
data_VN
_symmetry_space_group_name_H-M   'P 1'
_cell_length_a   3.63025594
_cell_length_b   4.05265141
_cell_length_c   4.69164991
_cell_angle_alpha   100.67055511
_cell_angle_beta   93.57612610
_cell_angle_gamma   99.08582306
_symmetry_Int_Tables_number   1
_chemical_formula_structural   VN
_chemical_formula_sum   'V2 N2'
_cell_volume   66.68049478
_cell_formula_units_Z   2
loop_
 _symmetry_equiv_pos_site_id
 _symmetry_equiv_pos_as_xyz
  1  'x, y, z'
loop_
 _atom_site_type_symbol
 _atom_site_label
 _atom_site_symmetry_multiplicity
 _atom_site_fract_x
 _atom_site_fract_y
 _atom_site_fract_z
 _atom_site_occupancy
  V  V1  1  0.27543324  0.75351143  0.90340745  1.0
  V  V2  1  0.64927703  0.14506349  0.20830524  1.0
  N  N1  1  0.21100450  0.84586012  0.10740101  1.0
  N  N2  1  0.72160327  0.21070677  0.69943964  1.0
