# generated using pymatgen
data_VOsO2
_symmetry_space_group_name_H-M   'P 1'
_cell_length_a   2.89438010
_cell_length_b   2.89438199
_cell_length_c   6.65636114
_cell_angle_alpha   90.00105039
_cell_angle_beta   89.99882937
_cell_angle_gamma   120.00107898
_symmetry_Int_Tables_number   1
_chemical_formula_structural   VOsO2
_chemical_formula_sum   'V1 Os1 O2'
_cell_volume   48.29188935
_cell_formula_units_Z   1
loop_
 _symmetry_equiv_pos_site_id
 _symmetry_equiv_pos_as_xyz
  1  'x, y, z'
loop_
 _atom_site_type_symbol
 _atom_site_label
 _atom_site_symmetry_multiplicity
 _atom_site_fract_x
 _atom_site_fract_y
 _atom_site_fract_z
 _atom_site_occupancy
  V  V0  1  0.99999975  0.99999988  0.00000029  1.0
  Os  Os1  1  0.00000016  0.99999938  0.49999988  1.0
  O  O2  1  0.66666667  0.33333333  0.16428361  1.0
  O  O3  1  0.33333333  0.66666667  0.83571622  1.0
