# generated using pymatgen
data_VPt2
_symmetry_space_group_name_H-M   'P 1'
_cell_length_a   2.30222201
_cell_length_b   2.18734646
_cell_length_c   3.49827051
_cell_angle_alpha   116.42166901
_cell_angle_beta   110.37085724
_cell_angle_gamma   98.47211456
_symmetry_Int_Tables_number   1
_chemical_formula_structural   VPt2
_chemical_formula_sum   'V1 Pt2'
_cell_volume   13.79809456
_cell_formula_units_Z   1
loop_
 _symmetry_equiv_pos_site_id
 _symmetry_equiv_pos_as_xyz
  1  'x, y, z'
loop_
 _atom_site_type_symbol
 _atom_site_label
 _atom_site_symmetry_multiplicity
 _atom_site_fract_x
 _atom_site_fract_y
 _atom_site_fract_z
 _atom_site_occupancy
  V  V1  1  0.00000000  0.00000000  0.00000000  1.0
  Pt  Pt1  1  0.66599381  0.55739832  0.31796318  1.0
  Pt  Pt2  1  0.24728200  0.19244501  0.79321742  1.0
