# generated using pymatgen
data_VPt
_symmetry_space_group_name_H-M   'P 1'
_cell_length_a   1.96708298
_cell_length_b   3.52755427
_cell_length_c   3.46565413
_cell_angle_alpha   98.92873383
_cell_angle_beta   94.50717163
_cell_angle_gamma   94.19035339
_symmetry_Int_Tables_number   1
_chemical_formula_structural   VPt
_chemical_formula_sum   'V2 Pt2'
_cell_volume   23.59433255
_cell_formula_units_Z   2
loop_
 _symmetry_equiv_pos_site_id
 _symmetry_equiv_pos_as_xyz
  1  'x, y, z'
loop_
 _atom_site_type_symbol
 _atom_site_label
 _atom_site_symmetry_multiplicity
 _atom_site_fract_x
 _atom_site_fract_y
 _atom_site_fract_z
 _atom_site_occupancy
  V  V1  1  0.52582800  0.00000000  0.41324210  1.0
  V  V2  1  0.00000000  0.46637940  0.62602484  1.0
  Pt  Pt1  1  0.53076369  0.49276078  0.00000000  1.0
  Pt  Pt2  1  0.00000000  0.00000000  0.00000000  1.0
