# generated using pymatgen
data_VRh3
_symmetry_space_group_name_H-M   'P 1'
_cell_length_a   3.05947709
_cell_length_b   4.02189159
_cell_length_c   2.53034520
_cell_angle_alpha   84.09300995
_cell_angle_beta   92.36738586
_cell_angle_gamma   112.85803223
_symmetry_Int_Tables_number   1
_chemical_formula_structural   VRh3
_chemical_formula_sum   'V2 Rh6'
_cell_volume   28.53816453
_cell_formula_units_Z   2
loop_
 _symmetry_equiv_pos_site_id
 _symmetry_equiv_pos_as_xyz
  1  'x, y, z'
loop_
 _atom_site_type_symbol
 _atom_site_label
 _atom_site_symmetry_multiplicity
 _atom_site_fract_x
 _atom_site_fract_y
 _atom_site_fract_z
 _atom_site_occupancy
  V  V1  1  0.44435251  0.71634227  0.63388979  1.0
  V  V2  1  0.76588899  0.32889390  0.43033648  1.0
  Rh  Rh1  1  0.00000000  0.39918330  0.11554357  1.0
  Rh  Rh2  1  0.80763841  0.85051423  0.12972111  1.0
  Rh  Rh3  1  0.23034891  0.57724798  0.23912844  1.0
  Rh  Rh4  1  0.84786594  0.67346925  0.83025455  1.0
  Rh  Rh5  1  0.28332323  0.00000000  0.76606327  1.0
  Rh  Rh6  1  0.68487388  0.00000000  0.67830753  1.0
