# generated using pymatgen
data_VRhN2
_symmetry_space_group_name_H-M   'P 1'
_cell_length_a   2.90150438
_cell_length_b   6.00054126
_cell_length_c   5.06532498
_cell_angle_alpha   65.78912524
_cell_angle_beta   89.99349076
_cell_angle_gamma   75.98785194
_symmetry_Int_Tables_number   1
_chemical_formula_structural   VRhN2
_chemical_formula_sum   'V2 Rh2 N4'
_cell_volume   77.54823631
_cell_formula_units_Z   2
loop_
 _symmetry_equiv_pos_site_id
 _symmetry_equiv_pos_as_xyz
  1  'x, y, z'
loop_
 _atom_site_type_symbol
 _atom_site_label
 _atom_site_symmetry_multiplicity
 _atom_site_fract_x
 _atom_site_fract_y
 _atom_site_fract_z
 _atom_site_occupancy
  V  V0  1  0.49998974  0.00000708  0.49999729  1.0
  V  V1  1  0.99999797  0.99999288  0.00000257  1.0
  Rh  Rh2  1  0.25000465  0.49999548  0.25000139  1.0
  Rh  Rh3  1  0.74999905  0.50000437  0.74999878  1.0
  N  N4  1  0.38530275  0.22878485  0.05460440  1.0
  N  N5  1  0.88530192  0.22878734  0.55460839  1.0
  N  N6  1  0.61469172  0.77121368  0.94538745  1.0
  N  N7  1  0.11469120  0.77121432  0.44539973  1.0
