# generated using pymatgen
data_VSiTc2
_symmetry_space_group_name_H-M   'P 1'
_cell_length_a   2.94761896
_cell_length_b   3.39852238
_cell_length_c   2.03851461
_cell_angle_alpha   67.51467133
_cell_angle_beta   60.91141129
_cell_angle_gamma   60.65831375
_symmetry_Int_Tables_number   1
_chemical_formula_structural   VSiTc2
_chemical_formula_sum   'V1 Si1 Tc2'
_cell_volume   15.27456955
_cell_formula_units_Z   1
loop_
 _symmetry_equiv_pos_site_id
 _symmetry_equiv_pos_as_xyz
  1  'x, y, z'
loop_
 _atom_site_type_symbol
 _atom_site_label
 _atom_site_symmetry_multiplicity
 _atom_site_fract_x
 _atom_site_fract_y
 _atom_site_fract_z
 _atom_site_occupancy
  V  V1  1  0.69164443  0.76590264  0.48721671  1.0
  Si  Si1  1  0.23303968  0.43986389  0.40733469  1.0
  Tc  Tc1  1  0.00000000  0.00000000  0.00000000  1.0
  Tc  Tc2  1  0.55835140  0.59617758  0.50122380  1.0
