# generated using pymatgen
data_VTc2Ge
_symmetry_space_group_name_H-M   'P 1'
_cell_length_a   3.41939259
_cell_length_b   3.50378776
_cell_length_c   3.83453369
_cell_angle_alpha   68.20037079
_cell_angle_beta   63.69911575
_cell_angle_gamma   70.33176422
_symmetry_Int_Tables_number   1
_chemical_formula_structural   VTc2Ge
_chemical_formula_sum   'V1 Tc2 Ge1'
_cell_volume   37.41425130
_cell_formula_units_Z   1
loop_
 _symmetry_equiv_pos_site_id
 _symmetry_equiv_pos_as_xyz
  1  'x, y, z'
loop_
 _atom_site_type_symbol
 _atom_site_label
 _atom_site_symmetry_multiplicity
 _atom_site_fract_x
 _atom_site_fract_y
 _atom_site_fract_z
 _atom_site_occupancy
  V  V1  1  0.70181906  0.62043023  0.84593797  1.0
  Tc  Tc1  1  0.00000000  0.00000000  0.00000000  1.0
  Tc  Tc2  1  0.55863452  0.42336586  0.55239254  1.0
  Ge  Ge1  1  0.26585069  0.35188001  0.23436928  1.0
