# generated using pymatgen
data_Y(SiRu)2
_symmetry_space_group_name_H-M   'P 1'
_cell_length_a   4.55302191
_cell_length_b   4.02367687
_cell_length_c   7.66413164
_cell_angle_alpha   126.64585876
_cell_angle_beta   109.77574158
_cell_angle_gamma   98.65946198
_symmetry_Int_Tables_number   1
_chemical_formula_structural   Y(SiRu)2
_chemical_formula_sum   'Y1 Si2 Ru2'
_cell_volume   93.74637385
_cell_formula_units_Z   1
loop_
 _symmetry_equiv_pos_site_id
 _symmetry_equiv_pos_as_xyz
  1  'x, y, z'
loop_
 _atom_site_type_symbol
 _atom_site_label
 _atom_site_symmetry_multiplicity
 _atom_site_fract_x
 _atom_site_fract_y
 _atom_site_fract_z
 _atom_site_occupancy
  Y  Y1  1  0.00000000  0.00000000  0.00000000  1.0
  Si  Si1  1  0.69241309  0.58739305  0.26584846  1.0
  Si  Si2  1  0.37863362  0.46287069  0.69456893  1.0
  Ru  Ru1  1  0.73069012  0.19686231  0.54511255  1.0
  Ru  Ru2  1  0.23754787  0.77576876  0.68194079  1.0
