# generated using pymatgen
data_Zr2CoOs
_symmetry_space_group_name_H-M   'P 1'
_cell_length_a   4.18001509
_cell_length_b   3.06008911
_cell_length_c   3.48218775
_cell_angle_alpha   61.23867416
_cell_angle_beta   72.23638153
_cell_angle_gamma   69.51853943
_symmetry_Int_Tables_number   1
_chemical_formula_structural   Zr2CoOs
_chemical_formula_sum   'Zr2 Co1 Os1'
_cell_volume   36.06756243
_cell_formula_units_Z   1
loop_
 _symmetry_equiv_pos_site_id
 _symmetry_equiv_pos_as_xyz
  1  'x, y, z'
loop_
 _atom_site_type_symbol
 _atom_site_label
 _atom_site_symmetry_multiplicity
 _atom_site_fract_x
 _atom_site_fract_y
 _atom_site_fract_z
 _atom_site_occupancy
  Zr  Zr1  1  0.00000000  0.00000000  0.00000000  1.0
  Zr  Zr2  1  0.41592008  0.41648111  0.46267107  1.0
  Co  Co1  1  0.58647823  0.40572277  0.31743085  1.0
  Os  Os1  1  0.66674834  0.73188937  0.69224155  1.0
