# generated using pymatgen
data_ZrB11
_symmetry_space_group_name_H-M   'P 1'
_cell_length_a   2.98839283
_cell_length_b   4.31639290
_cell_length_c   6.74302959
_cell_angle_alpha   67.15958405
_cell_angle_beta   62.37014771
_cell_angle_gamma   45.33724594
_symmetry_Int_Tables_number   1
_chemical_formula_structural   ZrB11
_chemical_formula_sum   'Zr1 B11'
_cell_volume   54.54196361
_cell_formula_units_Z   1
loop_
 _symmetry_equiv_pos_site_id
 _symmetry_equiv_pos_as_xyz
  1  'x, y, z'
loop_
 _atom_site_type_symbol
 _atom_site_label
 _atom_site_symmetry_multiplicity
 _atom_site_fract_x
 _atom_site_fract_y
 _atom_site_fract_z
 _atom_site_occupancy
  Zr  Zr1  1  0.00000000  0.00000000  0.00000000  1.0
  B  B1  1  0.19211850  0.62372273  0.56129855  1.0
  B  B2  1  0.72875166  0.45348385  0.64730990  1.0
  B  B3  1  0.25670695  0.20725444  0.86227500  1.0
  B  B4  1  0.96175838  0.22053930  0.71289223  1.0
  B  B5  1  0.64500666  0.48954868  0.14237291  1.0
  B  B6  1  0.51027232  0.00000000  0.78523344  1.0
  B  B7  1  0.41170573  0.91770780  0.49299270  1.0
  B  B8  1  0.93402684  0.63398057  0.18410635  1.0
  B  B9  1  0.17032291  0.91828942  0.56155223  1.0
  B  B10  1  0.33680302  0.17303100  0.53500795  1.0
  B  B11  1  0.18289718  0.74023092  0.95985699  1.0
