# generated using pymatgen
data_ZrB12
_symmetry_space_group_name_H-M   'P 1'
_cell_length_a   5.21448565
_cell_length_b   6.93908787
_cell_length_c   6.28900766
_cell_angle_alpha   85.20938873
_cell_angle_beta   60.88705063
_cell_angle_gamma   53.77606964
_symmetry_Int_Tables_number   1
_chemical_formula_structural   ZrB12
_chemical_formula_sum   'Zr1 B12'
_cell_volume   153.51803058
_cell_formula_units_Z   1
loop_
 _symmetry_equiv_pos_site_id
 _symmetry_equiv_pos_as_xyz
  1  'x, y, z'
loop_
 _atom_site_type_symbol
 _atom_site_label
 _atom_site_symmetry_multiplicity
 _atom_site_fract_x
 _atom_site_fract_y
 _atom_site_fract_z
 _atom_site_occupancy
  Zr  Zr1  1  0.00000000  0.00000000  0.00000000  1.0
  B  B1  1  0.13195899  0.18603191  0.62859160  1.0
  B  B2  1  0.75860447  0.61145753  0.60741079  1.0
  B  B3  1  0.38572216  0.53450108  0.85977435  1.0
  B  B4  1  0.84462368  0.12456277  0.71208227  1.0
  B  B5  1  0.30631271  0.71601361  0.22053689  1.0
  B  B6  1  0.56261981  0.16379052  0.88209337  1.0
  B  B7  1  0.46018758  0.93612331  0.68934411  1.0
  B  B8  1  0.66341174  0.49059480  0.00000000  1.0
  B  B9  1  0.13713010  0.57209933  0.73893929  1.0
  B  B10  1  0.53229558  0.35706419  0.56985664  1.0
  B  B11  1  0.17522538  0.81363106  0.46771255  1.0
  B  B12  1  0.73337024  0.67613637  0.12996727  1.0
