# generated using pymatgen
data_ZrBeN2
_symmetry_space_group_name_H-M   'P 1'
_cell_length_a   8.02322158
_cell_length_b   8.02322156
_cell_length_c   4.08476857
_cell_angle_alpha   82.45074974
_cell_angle_beta   82.45074960
_cell_angle_gamma   140.66874868
_symmetry_Int_Tables_number   1
_chemical_formula_structural   ZrBeN2
_chemical_formula_sum   'Zr4 Be4 N8'
_cell_volume   153.43110572
_cell_formula_units_Z   4
loop_
 _symmetry_equiv_pos_site_id
 _symmetry_equiv_pos_as_xyz
  1  'x, y, z'
loop_
 _atom_site_type_symbol
 _atom_site_label
 _atom_site_symmetry_multiplicity
 _atom_site_fract_x
 _atom_site_fract_y
 _atom_site_fract_z
 _atom_site_occupancy
  Zr  Zr0  1  0.56243697  0.43756304  0.25000001  1.0
  Zr  Zr1  1  0.30513972  0.69486027  0.25000000  1.0
  Zr  Zr2  1  0.69485999  0.30514001  0.75000001  1.0
  Zr  Zr3  1  0.43756346  0.56243653  0.75000001  1.0
  Be  Be4  1  0.01187350  0.98812651  0.25000000  1.0
  Be  Be5  1  0.86190554  0.13809444  0.25000001  1.0
  Be  Be6  1  0.13809436  0.86190566  0.74999999  1.0
  Be  Be7  1  0.98812656  0.01187343  0.75000000  1.0
  N  N8  1  0.57046856  0.98365575  0.59008632  1.0
  N  N9  1  0.27767966  0.14765308  0.87577537  1.0
  N  N10  1  0.98365518  0.57046833  0.09008634  1.0
  N  N11  1  0.14765298  0.27767933  0.37577554  1.0
  N  N12  1  0.85234692  0.72232034  0.62422462  1.0
  N  N13  1  0.01634425  0.42953144  0.90991368  1.0
  N  N14  1  0.72232066  0.85234701  0.12422447  1.0
  N  N15  1  0.42953168  0.01634482  0.40991364  1.0
