# generated using pymatgen
data_ZrRe2
_symmetry_space_group_name_H-M   'P 1'
_cell_length_a   3.91121006
_cell_length_b   6.65251446
_cell_length_c   7.98606348
_cell_angle_alpha   95.23902893
_cell_angle_beta   79.10704803
_cell_angle_gamma   130.20745850
_symmetry_Int_Tables_number   1
_chemical_formula_structural   ZrRe2
_chemical_formula_sum   'Zr4 Re8'
_cell_volume   155.70374773
_cell_formula_units_Z   4
loop_
 _symmetry_equiv_pos_site_id
 _symmetry_equiv_pos_as_xyz
  1  'x, y, z'
loop_
 _atom_site_type_symbol
 _atom_site_label
 _atom_site_symmetry_multiplicity
 _atom_site_fract_x
 _atom_site_fract_y
 _atom_site_fract_z
 _atom_site_occupancy
  Zr  Zr1  1  0.21204954  0.47580150  0.29724801  1.0
  Zr  Zr2  1  0.52641714  0.23531044  0.90291822  1.0
  Zr  Zr3  1  0.81295884  0.36785203  0.48327082  1.0
  Zr  Zr4  1  0.40225548  0.62601054  0.16523084  1.0
  Re  Re1  1  0.53087509  0.90926629  0.81271875  1.0
  Re  Re2  1  0.30486488  0.00000000  0.12425396  1.0
  Re  Re3  1  0.76952267  0.10490817  0.34534305  1.0
  Re  Re4  1  0.28199777  0.43016320  0.33905616  1.0
  Re  Re5  1  0.00000000  0.59843230  0.54676759  1.0
  Re  Re6  1  0.81803828  0.68087494  0.00000000  1.0
  Re  Re7  1  0.00000000  0.00000000  0.74452442  1.0
  Re  Re8  1  0.00000000  0.00000000  0.00000000  1.0
