# generated using pymatgen
data_ZrRhN2
_symmetry_space_group_name_H-M   'P 1'
_cell_length_a   3.15703621
_cell_length_b   3.15700101
_cell_length_c   5.38125222
_cell_angle_alpha   90.00015847
_cell_angle_beta   89.99928651
_cell_angle_gamma   119.99938601
_symmetry_Int_Tables_number   1
_chemical_formula_structural   ZrRhN2
_chemical_formula_sum   'Zr1 Rh1 N2'
_cell_volume   46.44842053
_cell_formula_units_Z   1
loop_
 _symmetry_equiv_pos_site_id
 _symmetry_equiv_pos_as_xyz
  1  'x, y, z'
loop_
 _atom_site_type_symbol
 _atom_site_label
 _atom_site_symmetry_multiplicity
 _atom_site_fract_x
 _atom_site_fract_y
 _atom_site_fract_z
 _atom_site_occupancy
  Zr  Zr0  1  0.00000000  0.99998548  0.99999987  1.0
  Rh  Rh1  1  0.00000000  0.99998456  0.49999974  1.0
  N  N2  1  0.66666667  0.33333333  0.73157414  1.0
  N  N3  1  0.33333333  0.66666667  0.26842625  1.0
