# generated using pymatgen
data_ZrRu3
_symmetry_space_group_name_H-M   'P 1'
_cell_length_a   1.91245830
_cell_length_b   4.60291147
_cell_length_c   1.47156799
_cell_angle_alpha   66.38565063
_cell_angle_beta   58.15169144
_cell_angle_gamma   78.47102356
_symmetry_Int_Tables_number   1
_chemical_formula_structural   ZrRu3
_chemical_formula_sum   'Zr1 Ru3'
_cell_volume   10.08124470
_cell_formula_units_Z   1
loop_
 _symmetry_equiv_pos_site_id
 _symmetry_equiv_pos_as_xyz
  1  'x, y, z'
loop_
 _atom_site_type_symbol
 _atom_site_label
 _atom_site_symmetry_multiplicity
 _atom_site_fract_x
 _atom_site_fract_y
 _atom_site_fract_z
 _atom_site_occupancy
  Zr  Zr1  1  0.00000000  0.00000000  0.00000000  1.0
  Ru  Ru1  1  0.42957371  0.48742670  0.00000000  1.0
  Ru  Ru2  1  0.50604749  0.00000000  0.76758862  1.0
  Ru  Ru3  1  0.00000000  0.19685620  0.23039031  1.0
