# generated using pymatgen
data_Co(SiIr)3
_symmetry_space_group_name_H-M   'P 1'
_cell_length_a   7.65622822
_cell_length_b   7.65622822
_cell_length_c   12.50163631
_cell_angle_alpha   72.98344540
_cell_angle_beta   72.98344540
_cell_angle_gamma   82.39269855
_symmetry_Int_Tables_number   1
_chemical_formula_structural   Co(SiIr)3
_chemical_formula_sum   'Co4 Si12 Ir12'
_cell_volume   669.18209644
_cell_formula_units_Z   4
loop_
 _symmetry_equiv_pos_site_id
 _symmetry_equiv_pos_as_xyz
  1  'x, y, z'
loop_
 _atom_site_type_symbol
 _atom_site_label
 _atom_site_symmetry_multiplicity
 _atom_site_fract_x
 _atom_site_fract_y
 _atom_site_fract_z
 _atom_site_occupancy
  Co  Co24  1  0.10951888  0.37532622  0.92411220  1.0
  Co  Co25  1  0.62467378  0.89048112  0.57588780  1.0
  Co  Co26  1  0.37532622  0.10951888  0.42411220  1.0
  Co  Co27  1  0.89048112  0.62467378  0.07588780  1.0
  Si  Si12  1  0.92671500  0.21796372  0.37317864  1.0
  Si  Si13  1  0.33415692  0.50519257  0.14106307  1.0
  Si  Si14  1  0.50519257  0.33415692  0.64106307  1.0
  Si  Si15  1  0.69346030  0.95907919  0.87209990  1.0
  Si  Si16  1  0.21796372  0.92671500  0.87317864  1.0
  Si  Si17  1  0.07328500  0.78203628  0.62682136  1.0
  Si  Si18  1  0.04092081  0.30653970  0.62790010  1.0
  Si  Si19  1  0.78203628  0.07328500  0.12682136  1.0
  Si  Si20  1  0.30653970  0.04092081  0.12790010  1.0
  Si  Si21  1  0.66584308  0.49480743  0.85893693  1.0
  Si  Si22  1  0.95907919  0.69346030  0.37209990  1.0
  Si  Si23  1  0.49480743  0.66584308  0.35893693  1.0
  Ir  Ir0  1  0.75184842  0.60919880  0.61274505  1.0
  Ir  Ir1  1  0.06298392  0.78729377  0.12292075  1.0
  Ir  Ir2  1  0.21270623  0.93701608  0.37707925  1.0
  Ir  Ir3  1  0.65997397  0.97872387  0.38283933  1.0
  Ir  Ir4  1  0.93701608  0.21270623  0.87707925  1.0
  Ir  Ir5  1  0.39080120  0.24815158  0.88725495  1.0
  Ir  Ir6  1  0.78729377  0.06298392  0.62292075  1.0
  Ir  Ir7  1  0.60919880  0.75184842  0.11274505  1.0
  Ir  Ir8  1  0.02127613  0.34002603  0.11716067  1.0
  Ir  Ir9  1  0.24815158  0.39080120  0.38725495  1.0
  Ir  Ir10  1  0.97872387  0.65997397  0.88283933  1.0
  Ir  Ir11  1  0.34002603  0.02127613  0.61716067  1.0
