# generated using pymatgen
data_CoMoP2
_symmetry_space_group_name_H-M   'P 1'
_cell_length_a   3.54009622
_cell_length_b   5.52161663
_cell_length_c   9.01401648
_cell_angle_alpha   93.49634963
_cell_angle_beta   89.99999994
_cell_angle_gamma   89.99999984
_symmetry_Int_Tables_number   1
_chemical_formula_structural   CoMoP2
_chemical_formula_sum   'Co3 Mo3 P6'
_cell_volume   175.86950950
_cell_formula_units_Z   3
loop_
 _symmetry_equiv_pos_site_id
 _symmetry_equiv_pos_as_xyz
  1  'x, y, z'
loop_
 _atom_site_type_symbol
 _atom_site_label
 _atom_site_symmetry_multiplicity
 _atom_site_fract_x
 _atom_site_fract_y
 _atom_site_fract_z
 _atom_site_occupancy
  Co  Co0  1  0.00000000  0.18113102  0.24179098  1.0
  Co  Co1  1  0.00000000  0.81895467  0.75821144  1.0
  Co  Co2  1  0.00000000  0.99997772  0.00002305  1.0
  Mo  Mo3  1  0.00000000  0.49994288  0.50005065  1.0
  Mo  Mo4  1  0.00000000  0.49999370  0.99998850  1.0
  Mo  Mo5  1  0.00000000  0.99994356  0.49997023  1.0
  P  P6  1  0.50000000  0.21836510  0.08626363  1.0
  P  P7  1  0.50000000  0.75895958  0.61844080  1.0
  P  P8  1  0.50000000  0.78163679  0.91373557  1.0
  P  P9  1  0.50000000  0.24104370  0.38155786  1.0
  P  P10  1  0.00000000  0.25153279  0.75122213  1.0
  P  P11  1  0.00000000  0.74851849  0.24874516  1.0
