# generated using pymatgen
data_CoP2Rh
_symmetry_space_group_name_H-M   'P 1'
_cell_length_a   4.14244958
_cell_length_b   4.14244972
_cell_length_c   4.14244969
_cell_angle_alpha   59.99999943
_cell_angle_beta   59.99999671
_cell_angle_gamma   59.99999832
_symmetry_Int_Tables_number   1
_chemical_formula_structural   CoP2Rh
_chemical_formula_sum   'Co1 P2 Rh1'
_cell_volume   50.26396027
_cell_formula_units_Z   1
loop_
 _symmetry_equiv_pos_site_id
 _symmetry_equiv_pos_as_xyz
  1  'x, y, z'
loop_
 _atom_site_type_symbol
 _atom_site_label
 _atom_site_symmetry_multiplicity
 _atom_site_fract_x
 _atom_site_fract_y
 _atom_site_fract_z
 _atom_site_occupancy
  Co  Co0  1  0.50000000  0.50000000  0.50000000  1.0
  P  P1  1  0.75000000  0.74999998  0.74999999  1.0
  P  P2  1  0.25000000  0.25000002  0.25000001  1.0
  Rh  Rh3  1  0.00000000  0.00000001  0.99999999  1.0
