# generated using pymatgen
data_CoSiRu
_symmetry_space_group_name_H-M   'P 1'
_cell_length_a   3.91209951
_cell_length_b   3.91209962
_cell_length_c   3.91209921
_cell_angle_alpha   60.00000324
_cell_angle_beta   59.99999524
_cell_angle_gamma   60.00000133
_symmetry_Int_Tables_number   1
_chemical_formula_structural   CoSiRu
_chemical_formula_sum   'Co1 Si1 Ru1'
_cell_volume   42.33647157
_cell_formula_units_Z   1
loop_
 _symmetry_equiv_pos_site_id
 _symmetry_equiv_pos_as_xyz
  1  'x, y, z'
loop_
 _atom_site_type_symbol
 _atom_site_label
 _atom_site_symmetry_multiplicity
 _atom_site_fract_x
 _atom_site_fract_y
 _atom_site_fract_z
 _atom_site_occupancy
  Co  Co0  1  0.74999999  0.74999999  0.74999998  1.0
  Si  Si1  1  0.50000001  0.50000001  0.50000000  1.0
  Ru  Ru2  1  0.00000000  0.00000000  0.00000001  1.0
