# generated using pymatgen
data_CrAs4Ru
_symmetry_space_group_name_H-M   'P 1'
_cell_length_a   5.90618168
_cell_length_b   5.04701347
_cell_length_c   5.08927324
_cell_angle_alpha   88.79548919
_cell_angle_beta   90.00000000
_cell_angle_gamma   90.00000000
_symmetry_Int_Tables_number   1
_chemical_formula_structural   CrAs4Ru
_chemical_formula_sum   'Cr2 As8 Ru2'
_cell_volume   151.67047907
_cell_formula_units_Z   2
loop_
 _symmetry_equiv_pos_site_id
 _symmetry_equiv_pos_as_xyz
  1  'x, y, z'
loop_
 _atom_site_type_symbol
 _atom_site_label
 _atom_site_symmetry_multiplicity
 _atom_site_fract_x
 _atom_site_fract_y
 _atom_site_fract_z
 _atom_site_occupancy
  Cr  Cr0  1  0.69050108  0.50000000  0.25000000  1.0
  Cr  Cr1  1  0.30949892  0.50000000  0.75000000  1.0
  As  As4  1  0.09586675  0.79885983  0.94791053  1.0
  As  As5  1  0.09586675  0.20114017  0.55208947  1.0
  As  As6  1  0.90413325  0.20114017  0.05208947  1.0
  As  As7  1  0.90413325  0.79885983  0.44791053  1.0
  As  As8  1  0.36954860  0.75730171  0.38357600  1.0
  As  As9  1  0.36954860  0.24269829  0.11642400  1.0
  As  As10  1  0.63045140  0.24269829  0.61642400  1.0
  As  As11  1  0.63045140  0.75730171  0.88357600  1.0
  Ru  Ru2  1  0.17666505  0.00000000  0.25000000  1.0
  Ru  Ru3  1  0.82333495  0.00000000  0.75000000  1.0
