# generated using pymatgen
data_CrRuN2
_symmetry_space_group_name_H-M   'P 1'
_cell_length_a   2.81392241
_cell_length_b   2.81392239
_cell_length_c   5.33732269
_cell_angle_alpha   90.00000005
_cell_angle_beta   89.99999947
_cell_angle_gamma   119.99999919
_symmetry_Int_Tables_number   1
_chemical_formula_structural   CrRuN2
_chemical_formula_sum   'Cr1 Ru1 N2'
_cell_volume   36.59976773
_cell_formula_units_Z   1
loop_
 _symmetry_equiv_pos_site_id
 _symmetry_equiv_pos_as_xyz
  1  'x, y, z'
loop_
 _atom_site_type_symbol
 _atom_site_label
 _atom_site_symmetry_multiplicity
 _atom_site_fract_x
 _atom_site_fract_y
 _atom_site_fract_z
 _atom_site_occupancy
  Cr  Cr0  1  0.99999991  0.99999992  0.49999992  1.0
  Ru  Ru1  1  0.00000008  0.00000007  0.99999991  1.0
  N  N2  1  0.33333333  0.66666667  0.27139145  1.0
  N  N3  1  0.66666667  0.33333333  0.72860872  1.0
