# generated using pymatgen
data_CuGe(PtN3)2
_symmetry_space_group_name_H-M   'P 1'
_cell_length_a   5.84341600
_cell_length_b   7.19862800
_cell_length_c   10.41707172
_cell_angle_alpha   46.85256932
_cell_angle_beta   90.00000000
_cell_angle_gamma   90.00000000
_symmetry_Int_Tables_number   1
_chemical_formula_structural   CuGe(PtN3)2
_chemical_formula_sum   'Cu2 Ge2 Pt4 N12'
_cell_volume   319.70164580
_cell_formula_units_Z   2
loop_
 _symmetry_equiv_pos_site_id
 _symmetry_equiv_pos_as_xyz
  1  'x, y, z'
loop_
 _atom_site_type_symbol
 _atom_site_label
 _atom_site_symmetry_multiplicity
 _atom_site_fract_x
 _atom_site_fract_y
 _atom_site_fract_z
 _atom_site_occupancy
  Cu  Cu0  1  0.99843200  0.50000000  0.75000000  1.0
  Cu  Cu1  1  0.00156800  0.50000000  0.25000000  1.0
  Ge  Ge2  1  0.35688300  0.00000000  0.75000000  1.0
  Ge  Ge3  1  0.64311700  0.00000000  0.25000000  1.0
  Pt  Pt4  1  0.51528800  0.84449400  0.41007000  1.0
  Pt  Pt5  1  0.48471200  0.84449400  0.91007000  1.0
  Pt  Pt6  1  0.51528800  0.15550600  0.08993000  1.0
  Pt  Pt7  1  0.48471200  0.15550600  0.58993000  1.0
  N  N8  1  0.75839800  0.32572900  0.24164500  1.0
  N  N9  1  0.00130100  0.24271300  0.99854500  1.0
  N  N10  1  0.24160200  0.32572900  0.74164500  1.0
  N  N11  1  0.22444200  0.32050600  0.24274500  1.0
  N  N12  1  0.75839800  0.67427100  0.25835500  1.0
  N  N13  1  0.77555800  0.67949400  0.75725500  1.0
  N  N14  1  0.99869900  0.24271300  0.49854500  1.0
  N  N15  1  0.77555800  0.32050600  0.74274500  1.0
  N  N16  1  0.24160200  0.67427100  0.75835500  1.0
  N  N17  1  0.00130100  0.75728700  0.50145500  1.0
  N  N18  1  0.99869900  0.75728700  0.00145500  1.0
  N  N19  1  0.22444200  0.67949400  0.25725500  1.0
