# generated using pymatgen
data_DyTm3N3
_symmetry_space_group_name_H-M   'P 1'
_cell_length_a   6.76225636
_cell_length_b   6.76225636
_cell_length_c   6.76225659
_cell_angle_alpha   111.51951592
_cell_angle_beta   111.51951592
_cell_angle_gamma   111.51951977
_symmetry_Int_Tables_number   1
_chemical_formula_structural   DyTm3N3
_chemical_formula_sum   'Dy2 Tm6 N6'
_cell_volume   218.13390519
_cell_formula_units_Z   2
loop_
 _symmetry_equiv_pos_site_id
 _symmetry_equiv_pos_as_xyz
  1  'x, y, z'
loop_
 _atom_site_type_symbol
 _atom_site_label
 _atom_site_symmetry_multiplicity
 _atom_site_fract_x
 _atom_site_fract_y
 _atom_site_fract_z
 _atom_site_occupancy
  Dy  Dy6  1  0.39789700  0.39789700  0.39789700  1.0
  Dy  Dy7  1  0.89789700  0.89789700  0.89789700  1.0
  Tm  Tm0  1  0.60010500  0.70000900  0.14219700  1.0
  Tm  Tm1  1  0.10010500  0.64219700  0.20000900  1.0
  Tm  Tm2  1  0.64219700  0.20000900  0.10010500  1.0
  Tm  Tm3  1  0.14219700  0.60010500  0.70000900  1.0
  Tm  Tm4  1  0.70000900  0.14219700  0.60010500  1.0
  Tm  Tm5  1  0.20000900  0.10010500  0.64219700  1.0
  N  N8  1  0.32024600  0.97212100  0.15150100  1.0
  N  N9  1  0.82024600  0.65150100  0.47212100  1.0
  N  N10  1  0.47212100  0.82024600  0.65150100  1.0
  N  N11  1  0.97212100  0.15150100  0.32024600  1.0
  N  N12  1  0.65150100  0.47212100  0.82024600  1.0
  N  N13  1  0.15150100  0.32024600  0.97212100  1.0
