# generated using pymatgen
data_Er2TaSi4(Ag3Sn)4
_symmetry_space_group_name_H-M   'P 1'
_cell_length_a   8.58282200
_cell_length_b   8.58282200
_cell_length_c   6.45047000
_cell_angle_alpha   90.00000000
_cell_angle_beta   90.00000000
_cell_angle_gamma   90.00000000
_symmetry_Int_Tables_number   1
_chemical_formula_structural   Er2TaSi4(Ag3Sn)4
_chemical_formula_sum   'Er4 Ta2 Si8 Ag24 Sn8'
_cell_volume   475.17279844
_cell_formula_units_Z   2
loop_
 _symmetry_equiv_pos_site_id
 _symmetry_equiv_pos_as_xyz
  1  'x, y, z'
loop_
 _atom_site_type_symbol
 _atom_site_label
 _atom_site_symmetry_multiplicity
 _atom_site_fract_x
 _atom_site_fract_y
 _atom_site_fract_z
 _atom_site_occupancy
  Er  Er0  1  0.50000000  0.00000000  0.98514300  1.0
  Er  Er1  1  0.00000000  0.50000000  0.51485700  1.0
  Er  Er2  1  0.00000000  0.50000000  0.01485700  1.0
  Er  Er3  1  0.50000000  0.00000000  0.48514300  1.0
  Ta  Ta28  1  0.50000000  0.50000000  0.50000000  1.0
  Ta  Ta29  1  0.00000000  0.00000000  0.00000000  1.0
  Si  Si30  1  0.60048900  0.77234400  0.00796700  1.0
  Si  Si31  1  0.89951100  0.27234400  0.49203300  1.0
  Si  Si32  1  0.39951100  0.22765600  0.00796700  1.0
  Si  Si33  1  0.10048900  0.72765600  0.49203300  1.0
  Si  Si34  1  0.22765600  0.60048900  0.99203300  1.0
  Si  Si35  1  0.72765600  0.89951100  0.50796700  1.0
  Si  Si36  1  0.77234400  0.39951100  0.99203300  1.0
  Si  Si37  1  0.27234400  0.10048900  0.50796700  1.0
  Ag  Ag4  1  0.58475300  0.70208200  0.88022700  1.0
  Ag  Ag5  1  0.91524700  0.20208200  0.61977300  1.0
  Ag  Ag6  1  0.41524700  0.29791800  0.88022700  1.0
  Ag  Ag7  1  0.08475300  0.79791800  0.61977300  1.0
  Ag  Ag8  1  0.29791800  0.58475300  0.11977300  1.0
  Ag  Ag9  1  0.79791800  0.91524700  0.38022700  1.0
  Ag  Ag10  1  0.70208200  0.41524700  0.11977300  1.0
  Ag  Ag11  1  0.20208200  0.08475300  0.38022700  1.0
  Ag  Ag12  1  0.71857100  0.78755500  0.02917400  1.0
  Ag  Ag13  1  0.78142900  0.28755500  0.47082600  1.0
  Ag  Ag14  1  0.28142900  0.21244500  0.02917400  1.0
  Ag  Ag15  1  0.21857100  0.71244500  0.47082600  1.0
  Ag  Ag16  1  0.21244500  0.71857100  0.97082600  1.0
  Ag  Ag17  1  0.71244500  0.78142900  0.52917400  1.0
  Ag  Ag18  1  0.78755500  0.28142900  0.97082600  1.0
  Ag  Ag19  1  0.28755500  0.21857100  0.52917400  1.0
  Ag  Ag20  1  0.55565800  0.71659700  0.13653200  1.0
  Ag  Ag21  1  0.94434200  0.21659700  0.36346800  1.0
  Ag  Ag22  1  0.44434200  0.28340300  0.13653200  1.0
  Ag  Ag23  1  0.05565800  0.78340300  0.36346800  1.0
  Ag  Ag24  1  0.28340300  0.55565800  0.86346800  1.0
  Ag  Ag25  1  0.78340300  0.94434200  0.63653200  1.0
  Ag  Ag26  1  0.71659700  0.44434200  0.86346800  1.0
  Ag  Ag27  1  0.21659700  0.05565800  0.63653200  1.0
  Sn  Sn38  1  0.62724100  0.56506300  0.63344300  1.0
  Sn  Sn39  1  0.87275900  0.06506300  0.86655700  1.0
  Sn  Sn40  1  0.37275900  0.43493700  0.63344300  1.0
  Sn  Sn41  1  0.12724100  0.93493700  0.86655700  1.0
  Sn  Sn42  1  0.43493700  0.62724100  0.36655700  1.0
  Sn  Sn43  1  0.93493700  0.87275900  0.13344300  1.0
  Sn  Sn44  1  0.56506300  0.37275900  0.36655700  1.0
  Sn  Sn45  1  0.06506300  0.12724100  0.13344300  1.0
