# generated using pymatgen
data_EuFeCl4
_symmetry_space_group_name_H-M   'P 1'
_cell_length_a   4.58188286
_cell_length_b   4.91903537
_cell_length_c   5.66065218
_cell_angle_alpha   89.99997789
_cell_angle_beta   89.99996624
_cell_angle_gamma   89.94825875
_symmetry_Int_Tables_number   1
_chemical_formula_structural   EuFeCl4
_chemical_formula_sum   'Eu2 Fe2 Cl8'
_cell_volume   127.58223929
_cell_formula_units_Z   2
loop_
 _symmetry_equiv_pos_site_id
 _symmetry_equiv_pos_as_xyz
  1  'x, y, z'
loop_
 _atom_site_type_symbol
 _atom_site_label
 _atom_site_symmetry_multiplicity
 _atom_site_fract_x
 _atom_site_fract_y
 _atom_site_fract_z
 _atom_site_occupancy
  Eu  Eu2  1  0.00000000  0.25000000  0.17887464  1.0
  Eu  Eu3  1  0.00000000  0.75000000  0.82112636  1.0
  Fe  Fe0  1  0.50000000  0.75000000  0.34424326  1.0
  Fe  Fe1  1  0.49999900  0.24999900  0.65575374  1.0
  Cl  Cl4  1  0.73980177  0.09477898  0.37846064  1.0
  Cl  Cl5  1  0.26019723  0.40522102  0.37846064  1.0
  Cl  Cl6  1  0.26019723  0.90522102  0.62153936  1.0
  Cl  Cl7  1  0.73980277  0.59477898  0.62153936  1.0
  Cl  Cl8  1  0.77833103  0.07024584  0.89070315  1.0
  Cl  Cl9  1  0.22166897  0.42975316  0.89070215  1.0
  Cl  Cl10  1  0.77833103  0.57024584  0.10929785  1.0
  Cl  Cl11  1  0.22166897  0.92975416  0.10929785  1.0
