# generated using pymatgen
data_FeP2Os
_symmetry_space_group_name_H-M   'P 1'
_cell_length_a   4.12039289
_cell_length_b   4.12039227
_cell_length_c   4.12039300
_cell_angle_alpha   60.00005511
_cell_angle_beta   60.00005582
_cell_angle_gamma   60.00008250
_symmetry_Int_Tables_number   1
_chemical_formula_structural   FeP2Os
_chemical_formula_sum   'Fe1 P2 Os1'
_cell_volume   49.46539376
_cell_formula_units_Z   1
loop_
 _symmetry_equiv_pos_site_id
 _symmetry_equiv_pos_as_xyz
  1  'x, y, z'
loop_
 _atom_site_type_symbol
 _atom_site_label
 _atom_site_symmetry_multiplicity
 _atom_site_fract_x
 _atom_site_fract_y
 _atom_site_fract_z
 _atom_site_occupancy
  Fe  Fe0  1  0.24999860  0.24999998  0.24999999  1.0
  P  P1  1  0.00000015  0.00000028  0.00000029  1.0
  P  P2  1  0.50000042  0.50000063  0.50000059  1.0
  Os  Os3  1  0.74999983  0.75000011  0.75000012  1.0
