# generated using pymatgen
data_FeReP2
_symmetry_space_group_name_H-M   'P 1'
_cell_length_a   4.11383913
_cell_length_b   4.11384584
_cell_length_c   4.11382455
_cell_angle_alpha   59.99403548
_cell_angle_beta   59.99368184
_cell_angle_gamma   59.99403118
_symmetry_Int_Tables_number   1
_chemical_formula_structural   FeReP2
_chemical_formula_sum   'Fe1 Re1 P2'
_cell_volume   49.22278413
_cell_formula_units_Z   1
loop_
 _symmetry_equiv_pos_site_id
 _symmetry_equiv_pos_as_xyz
  1  'x, y, z'
loop_
 _atom_site_type_symbol
 _atom_site_label
 _atom_site_symmetry_multiplicity
 _atom_site_fract_x
 _atom_site_fract_y
 _atom_site_fract_z
 _atom_site_occupancy
  Fe  Fe0  1  0.24999838  0.25000279  0.25000336  1.0
  Re  Re1  1  0.75000091  0.75000008  0.74999908  1.0
  P  P2  1  0.99998937  0.99998974  0.99998907  1.0
  P  P3  1  0.50001233  0.50000939  0.50000950  1.0
