# generated using pymatgen
data_Hf2C3S
_symmetry_space_group_name_H-M   'P 1'
_cell_length_a   8.69096013
_cell_length_b   8.69096013
_cell_length_c   8.69096013
_cell_angle_alpha   109.47122063
_cell_angle_beta   109.47122063
_cell_angle_gamma   109.47122063
_symmetry_Int_Tables_number   1
_chemical_formula_structural   Hf2C3S
_chemical_formula_sum   'Hf8 C12 S4'
_cell_volume   505.33733082
_cell_formula_units_Z   4
loop_
 _symmetry_equiv_pos_site_id
 _symmetry_equiv_pos_as_xyz
  1  'x, y, z'
loop_
 _atom_site_type_symbol
 _atom_site_label
 _atom_site_symmetry_multiplicity
 _atom_site_fract_x
 _atom_site_fract_y
 _atom_site_fract_z
 _atom_site_occupancy
  Hf  Hf16  1  0.50000000  0.00000000  0.96483143  1.0
  Hf  Hf17  1  0.96483143  0.50000000  0.00000000  1.0
  Hf  Hf18  1  0.50000000  0.00000000  0.53516857  1.0
  Hf  Hf19  1  0.00000000  0.53516857  0.50000000  1.0
  Hf  Hf20  1  0.96483143  0.96483143  0.96483143  1.0
  Hf  Hf21  1  0.53516857  0.50000000  0.00000000  1.0
  Hf  Hf22  1  0.53516857  0.53516857  0.53516857  1.0
  Hf  Hf23  1  0.00000000  0.96483143  0.50000000  1.0
  C  C0  1  0.25000000  0.12904596  0.87904596  1.0
  C  C1  1  0.12904596  0.87904596  0.25000000  1.0
  C  C2  1  0.87904596  0.25000000  0.12904596  1.0
  C  C3  1  0.12904596  0.75000000  0.87904596  1.0
  C  C4  1  0.62095404  0.75000000  0.37095404  1.0
  C  C5  1  0.37095404  0.25000000  0.62095404  1.0
  C  C6  1  0.87904596  0.12904596  0.75000000  1.0
  C  C7  1  0.62095404  0.37095404  0.25000000  1.0
  C  C8  1  0.75000000  0.87904596  0.12904596  1.0
  C  C9  1  0.25000000  0.62095404  0.37095404  1.0
  C  C10  1  0.75000000  0.37095404  0.62095404  1.0
  C  C11  1  0.37095404  0.62095404  0.75000000  1.0
  S  S12  1  0.25000000  0.25000000  0.25000000  1.0
  S  S13  1  0.00000000  0.25000000  0.50000000  1.0
  S  S14  1  0.25000000  0.50000000  0.00000000  1.0
  S  S15  1  0.50000000  0.00000000  0.25000000  1.0
