# generated using pymatgen
data_HfMnN2
_symmetry_space_group_name_H-M   'P 1'
_cell_length_a   3.10622627
_cell_length_b   3.10622696
_cell_length_c   5.30526324
_cell_angle_alpha   90.00002172
_cell_angle_beta   89.99996126
_cell_angle_gamma   120.00003964
_symmetry_Int_Tables_number   1
_chemical_formula_structural   HfMnN2
_chemical_formula_sum   'Hf1 Mn1 N2'
_cell_volume   44.33060610
_cell_formula_units_Z   1
loop_
 _symmetry_equiv_pos_site_id
 _symmetry_equiv_pos_as_xyz
  1  'x, y, z'
loop_
 _atom_site_type_symbol
 _atom_site_label
 _atom_site_symmetry_multiplicity
 _atom_site_fract_x
 _atom_site_fract_y
 _atom_site_fract_z
 _atom_site_occupancy
  Hf  Hf0  1  0.00000000  0.99999998  0.50000000  1.0
  Mn  Mn1  1  0.99999999  0.00000001  0.00000000  1.0
  N  N2  1  0.33333333  0.66666667  0.24325818  1.0
  N  N3  1  0.66666667  0.33333333  0.75674182  1.0
