# generated using pymatgen
data_HfPdN2
_symmetry_space_group_name_H-M   'P 1'
_cell_length_a   3.21771077
_cell_length_b   3.21771096
_cell_length_c   5.52483551
_cell_angle_alpha   89.99817067
_cell_angle_beta   90.00183729
_cell_angle_gamma   120.00064804
_symmetry_Int_Tables_number   1
_chemical_formula_structural   HfPdN2
_chemical_formula_sum   'Hf1 Pd1 N2'
_cell_volume   49.53830945
_cell_formula_units_Z   1
loop_
 _symmetry_equiv_pos_site_id
 _symmetry_equiv_pos_as_xyz
  1  'x, y, z'
loop_
 _atom_site_type_symbol
 _atom_site_label
 _atom_site_symmetry_multiplicity
 _atom_site_fract_x
 _atom_site_fract_y
 _atom_site_fract_z
 _atom_site_occupancy
  Hf  Hf0  1  0.99999995  0.99999999  0.00000336  1.0
  Pd  Pd1  1  0.00000002  0.00000001  0.49999962  1.0
  N  N2  1  0.66666667  0.33333333  0.78064655  1.0
  N  N3  1  0.33333333  0.66666667  0.21935047  1.0
