# generated using pymatgen
data_InMoN2
_symmetry_space_group_name_H-M   'P 1'
_cell_length_a   3.03942268
_cell_length_b   3.03942283
_cell_length_c   6.75985751
_cell_angle_alpha   89.99998054
_cell_angle_beta   90.00005380
_cell_angle_gamma   119.99999446
_symmetry_Int_Tables_number   1
_chemical_formula_structural   InMoN2
_chemical_formula_sum   'In1 Mo1 N2'
_cell_volume   54.08171045
_cell_formula_units_Z   1
loop_
 _symmetry_equiv_pos_site_id
 _symmetry_equiv_pos_as_xyz
  1  'x, y, z'
loop_
 _atom_site_type_symbol
 _atom_site_label
 _atom_site_symmetry_multiplicity
 _atom_site_fract_x
 _atom_site_fract_y
 _atom_site_fract_z
 _atom_site_occupancy
  In  In0  1  0.00000000  0.00000000  0.50000001  1.0
  Mo  Mo1  1  0.99999956  0.00000067  0.00000015  1.0
  N  N2  1  0.66666667  0.33333333  0.83160748  1.0
  N  N3  1  0.33333333  0.66666667  0.16839236  1.0
