# generated using pymatgen
data_LuAlN2
_symmetry_space_group_name_H-M   'P 1'
_cell_length_a   6.01261994
_cell_length_b   6.01282249
_cell_length_c   11.01245044
_cell_angle_alpha   82.31340714
_cell_angle_beta   82.27624937
_cell_angle_gamma   90.02050301
_symmetry_Int_Tables_number   1
_chemical_formula_structural   LuAlN2
_chemical_formula_sum   'Lu8 Al8 N16'
_cell_volume   390.90599859
_cell_formula_units_Z   8
loop_
 _symmetry_equiv_pos_site_id
 _symmetry_equiv_pos_as_xyz
  1  'x, y, z'
loop_
 _atom_site_type_symbol
 _atom_site_label
 _atom_site_symmetry_multiplicity
 _atom_site_fract_x
 _atom_site_fract_y
 _atom_site_fract_z
 _atom_site_occupancy
  Lu  Lu0  1  0.65574752  0.78387263  0.37526494  1.0
  Lu  Lu1  1  0.21668748  0.34469143  0.12474523  1.0
  Lu  Lu2  1  0.34425296  0.21612769  0.62473558  1.0
  Lu  Lu3  1  0.78331320  0.65530880  0.87525431  1.0
  Lu  Lu4  1  0.22125928  0.84715773  0.11704107  1.0
  Lu  Lu5  1  0.15329293  0.77900951  0.38296244  1.0
  Lu  Lu6  1  0.77874208  0.15284282  0.88295833  1.0
  Lu  Lu7  1  0.84670742  0.22098745  0.61703811  1.0
  Al  Al8  1  0.41203241  0.28652777  0.35699684  1.0
  Al  Al9  1  0.71361064  0.58799182  0.14305792  1.0
  Al  Al10  1  0.58796794  0.71347167  0.64300392  1.0
  Al  Al11  1  0.28638910  0.41200809  0.85694141  1.0
  Al  Al12  1  0.71326861  0.09177429  0.14382434  1.0
  Al  Al13  1  0.90829047  0.28689889  0.35615656  1.0
  Al  Al14  1  0.28673160  0.90822593  0.85617515  1.0
  Al  Al15  1  0.09170954  0.71310110  0.64384386  1.0
  N  N16  1  0.43013809  0.05673327  0.24965607  1.0
  N  N17  1  0.94339272  0.57001386  0.25033696  1.0
  N  N18  1  0.56986215  0.94326593  0.75034433  1.0
  N  N19  1  0.05660712  0.42998647  0.74966284  1.0
  N  N20  1  0.43070286  0.56944690  0.25006063  1.0
  N  N21  1  0.56929697  0.43055262  0.74993941  1.0
  N  N22  1  0.94381536  0.05641283  0.24993096  1.0
  N  N23  1  0.05618547  0.94358730  0.75006879  1.0
  N  N24  1  0.74059398  0.86544155  0.03567206  1.0
  N  N25  1  0.13446278  0.25927209  0.46433890  1.0
  N  N26  1  0.25940309  0.13455807  0.96432856  1.0
  N  N27  1  0.86553787  0.74073096  0.53566048  1.0
  N  N28  1  0.63305174  0.25719013  0.46428338  1.0
  N  N29  1  0.74248979  0.36691068  0.03570016  1.0
  N  N30  1  0.36694864  0.74281033  0.53571599  1.0
  N  N31  1  0.25750817  0.63308937  0.96430048  1.0
