# generated using pymatgen
data_LuNbN2
_symmetry_space_group_name_H-M   'P 1'
_cell_length_a   3.18776238
_cell_length_b   3.18774112
_cell_length_c   5.71862900
_cell_angle_alpha   89.99838325
_cell_angle_beta   90.00027259
_cell_angle_gamma   119.99848744
_symmetry_Int_Tables_number   1
_chemical_formula_structural   LuNbN2
_chemical_formula_sum   'Lu1 Nb1 N2'
_cell_volume   50.32666577
_cell_formula_units_Z   1
loop_
 _symmetry_equiv_pos_site_id
 _symmetry_equiv_pos_as_xyz
  1  'x, y, z'
loop_
 _atom_site_type_symbol
 _atom_site_label
 _atom_site_symmetry_multiplicity
 _atom_site_fract_x
 _atom_site_fract_y
 _atom_site_fract_z
 _atom_site_occupancy
  Lu  Lu0  1  0.00000038  0.00000026  0.99999993  1.0
  Nb  Nb1  1  0.99999959  0.99999966  0.50000007  1.0
  N  N2  1  0.66666667  0.33333333  0.74140258  1.0
  N  N3  1  0.33333333  0.66666667  0.25859742  1.0
