# generated using pymatgen
data_LuP3Rh2
_symmetry_space_group_name_H-M   'P 1'
_cell_length_a   9.05928283
_cell_length_b   9.05928283
_cell_length_c   9.05928283
_cell_angle_alpha   109.47122063
_cell_angle_beta   109.47122063
_cell_angle_gamma   109.47122063
_symmetry_Int_Tables_number   1
_chemical_formula_structural   LuP3Rh2
_chemical_formula_sum   'Lu4 P12 Rh8'
_cell_volume   572.34720303
_cell_formula_units_Z   4
loop_
 _symmetry_equiv_pos_site_id
 _symmetry_equiv_pos_as_xyz
  1  'x, y, z'
loop_
 _atom_site_type_symbol
 _atom_site_label
 _atom_site_symmetry_multiplicity
 _atom_site_fract_x
 _atom_site_fract_y
 _atom_site_fract_z
 _atom_site_occupancy
  Lu  Lu20  1  0.25000000  0.25000000  0.25000000  1.0
  Lu  Lu21  1  0.00000000  0.25000000  0.50000000  1.0
  Lu  Lu22  1  0.25000000  0.50000000  0.00000000  1.0
  Lu  Lu23  1  0.50000000  0.00000000  0.25000000  1.0
  P  P0  1  0.60816563  0.75000000  0.35816563  1.0
  P  P1  1  0.25000000  0.60816563  0.35816563  1.0
  P  P2  1  0.75000000  0.89183437  0.14183437  1.0
  P  P3  1  0.60816563  0.35816563  0.25000000  1.0
  P  P4  1  0.89183437  0.14183437  0.75000000  1.0
  P  P5  1  0.35816563  0.25000000  0.60816563  1.0
  P  P6  1  0.35816563  0.60816563  0.75000000  1.0
  P  P7  1  0.25000000  0.14183437  0.89183437  1.0
  P  P8  1  0.14183437  0.89183437  0.25000000  1.0
  P  P9  1  0.75000000  0.35816563  0.60816563  1.0
  P  P10  1  0.89183437  0.25000000  0.14183437  1.0
  P  P11  1  0.14183437  0.75000000  0.89183437  1.0
  Rh  Rh12  1  0.50000000  0.00000000  0.95946528  1.0
  Rh  Rh13  1  0.54053472  0.50000000  0.00000000  1.0
  Rh  Rh14  1  0.95946528  0.95946528  0.95946528  1.0
  Rh  Rh15  1  0.00000000  0.54053472  0.50000000  1.0
  Rh  Rh16  1  0.50000000  0.00000000  0.54053472  1.0
  Rh  Rh17  1  0.95946528  0.50000000  0.00000000  1.0
  Rh  Rh18  1  0.00000000  0.95946528  0.50000000  1.0
  Rh  Rh19  1  0.54053472  0.54053472  0.54053472  1.0
