# generated using pymatgen
data_LuVN2
_symmetry_space_group_name_H-M   'P 1'
_cell_length_a   3.10680844
_cell_length_b   6.26324278
_cell_length_c   5.38546263
_cell_angle_alpha   64.42449930
_cell_angle_beta   89.99896571
_cell_angle_gamma   75.63592512
_symmetry_Int_Tables_number   1
_chemical_formula_structural   LuVN2
_chemical_formula_sum   'Lu2 V2 N4'
_cell_volume   90.88093556
_cell_formula_units_Z   2
loop_
 _symmetry_equiv_pos_site_id
 _symmetry_equiv_pos_as_xyz
  1  'x, y, z'
loop_
 _atom_site_type_symbol
 _atom_site_label
 _atom_site_symmetry_multiplicity
 _atom_site_fract_x
 _atom_site_fract_y
 _atom_site_fract_z
 _atom_site_occupancy
  Lu  Lu0  1  0.24999709  0.50000580  0.24999745  1.0
  Lu  Lu1  1  0.75000343  0.49999420  0.75000221  1.0
  V  V2  1  0.49999418  0.99999986  0.50000089  1.0
  V  V3  1  0.99999733  0.00000018  0.99999955  1.0
  N  N4  1  0.38885554  0.22231245  0.05610214  1.0
  N  N5  1  0.88885366  0.22231466  0.55609654  1.0
  N  N6  1  0.61113835  0.77768736  0.94389782  1.0
  N  N7  1  0.11113942  0.77768548  0.44390341  1.0
