# generated using pymatgen
data_MnSiMo
_symmetry_space_group_name_H-M   'P 1'
_cell_length_a   3.99626814
_cell_length_b   3.99626833
_cell_length_c   3.99626809
_cell_angle_alpha   60.00000876
_cell_angle_beta   60.00000927
_cell_angle_gamma   60.00000789
_symmetry_Int_Tables_number   1
_chemical_formula_structural   MnSiMo
_chemical_formula_sum   'Mn1 Si1 Mo1'
_cell_volume   45.12829902
_cell_formula_units_Z   1
loop_
 _symmetry_equiv_pos_site_id
 _symmetry_equiv_pos_as_xyz
  1  'x, y, z'
loop_
 _atom_site_type_symbol
 _atom_site_label
 _atom_site_symmetry_multiplicity
 _atom_site_fract_x
 _atom_site_fract_y
 _atom_site_fract_z
 _atom_site_occupancy
  Mn  Mn0  1  0.75000001  0.75000002  0.75000002  1.0
  Si  Si1  1  0.49999999  0.49999999  0.49999998  1.0
  Mo  Mo2  1  0.00000001  0.99999999  0.00000000  1.0
