# generated using pymatgen
data_MnVC
_symmetry_space_group_name_H-M   'P 1'
_cell_length_a   3.53766727
_cell_length_b   3.53766731
_cell_length_c   3.53766717
_cell_angle_alpha   60.00000610
_cell_angle_beta   60.00000480
_cell_angle_gamma   60.00000034
_symmetry_Int_Tables_number   1
_chemical_formula_structural   MnVC
_chemical_formula_sum   'Mn1 V1 C1'
_cell_volume   31.30660563
_cell_formula_units_Z   1
loop_
 _symmetry_equiv_pos_site_id
 _symmetry_equiv_pos_as_xyz
  1  'x, y, z'
loop_
 _atom_site_type_symbol
 _atom_site_label
 _atom_site_symmetry_multiplicity
 _atom_site_fract_x
 _atom_site_fract_y
 _atom_site_fract_z
 _atom_site_occupancy
  Mn  Mn0  1  0.49999999  0.49999997  0.49999997  1.0
  V  V1  1  0.00000005  0.00000006  0.00000007  1.0
  C  C2  1  0.74999996  0.74999998  0.74999997  1.0
