# generated using pymatgen
data_NbVN2
_symmetry_space_group_name_H-M   'P 1'
_cell_length_a   2.88267294
_cell_length_b   6.33310768
_cell_length_c   4.99810695
_cell_angle_alpha   66.77593780
_cell_angle_beta   90.01143842
_cell_angle_gamma   76.86365832
_symmetry_Int_Tables_number   1
_chemical_formula_structural   NbVN2
_chemical_formula_sum   'Nb2 V2 N4'
_cell_volume   81.24650213
_cell_formula_units_Z   2
loop_
 _symmetry_equiv_pos_site_id
 _symmetry_equiv_pos_as_xyz
  1  'x, y, z'
loop_
 _atom_site_type_symbol
 _atom_site_label
 _atom_site_symmetry_multiplicity
 _atom_site_fract_x
 _atom_site_fract_y
 _atom_site_fract_z
 _atom_site_occupancy
  Nb  Nb0  1  0.24999677  0.50000371  0.24999559  1.0
  Nb  Nb1  1  0.75000050  0.49999629  0.75000442  1.0
  V  V2  1  0.49999697  0.00000001  0.49999996  1.0
  V  V3  1  0.99999741  0.00000000  0.00000003  1.0
  N  N4  1  0.38596286  0.22813977  0.05297286  1.0
  N  N5  1  0.88596217  0.22814029  0.55297473  1.0
  N  N6  1  0.61403095  0.77186021  0.94702724  1.0
  N  N7  1  0.11403137  0.77185971  0.44702517  1.0
