# generated using pymatgen
data_NiP2Os
_symmetry_space_group_name_H-M   'P 1'
_cell_length_a   4.17310133
_cell_length_b   4.17310071
_cell_length_c   4.17310187
_cell_angle_alpha   59.99994305
_cell_angle_beta   59.99993254
_cell_angle_gamma   59.99995946
_symmetry_Int_Tables_number   1
_chemical_formula_structural   NiP2Os
_chemical_formula_sum   'Ni1 P2 Os1'
_cell_volume   51.38794412
_cell_formula_units_Z   1
loop_
 _symmetry_equiv_pos_site_id
 _symmetry_equiv_pos_as_xyz
  1  'x, y, z'
loop_
 _atom_site_type_symbol
 _atom_site_label
 _atom_site_symmetry_multiplicity
 _atom_site_fract_x
 _atom_site_fract_y
 _atom_site_fract_z
 _atom_site_occupancy
  Ni  Ni0  1  0.49999994  0.50000006  0.49999999  1.0
  P  P1  1  0.75000005  0.75000001  0.75000003  1.0
  P  P2  1  0.24999999  0.24999995  0.24999998  1.0
  Os  Os3  1  0.00000002  0.99999998  0.00000001  1.0
