# generated using pymatgen
data_Os2C3S
_symmetry_space_group_name_H-M   'P 1'
_cell_length_a   9.05928283
_cell_length_b   9.05928283
_cell_length_c   9.05928283
_cell_angle_alpha   109.47122063
_cell_angle_beta   109.47122063
_cell_angle_gamma   109.47122063
_symmetry_Int_Tables_number   1
_chemical_formula_structural   Os2C3S
_chemical_formula_sum   'Os8 C12 S4'
_cell_volume   572.34720303
_cell_formula_units_Z   4
loop_
 _symmetry_equiv_pos_site_id
 _symmetry_equiv_pos_as_xyz
  1  'x, y, z'
loop_
 _atom_site_type_symbol
 _atom_site_label
 _atom_site_symmetry_multiplicity
 _atom_site_fract_x
 _atom_site_fract_y
 _atom_site_fract_z
 _atom_site_occupancy
  Os  Os12  1  0.50000000  0.00000000  0.95946528  1.0
  Os  Os13  1  0.54053472  0.50000000  0.00000000  1.0
  Os  Os14  1  0.95946528  0.95946528  0.95946528  1.0
  Os  Os15  1  0.00000000  0.54053472  0.50000000  1.0
  Os  Os16  1  0.50000000  0.00000000  0.54053472  1.0
  Os  Os17  1  0.95946528  0.50000000  0.00000000  1.0
  Os  Os18  1  0.00000000  0.95946528  0.50000000  1.0
  Os  Os19  1  0.54053472  0.54053472  0.54053472  1.0
  C  C0  1  0.60816563  0.75000000  0.35816563  1.0
  C  C1  1  0.25000000  0.60816563  0.35816563  1.0
  C  C2  1  0.75000000  0.89183437  0.14183437  1.0
  C  C3  1  0.60816563  0.35816563  0.25000000  1.0
  C  C4  1  0.89183437  0.14183437  0.75000000  1.0
  C  C5  1  0.35816563  0.25000000  0.60816563  1.0
  C  C6  1  0.35816563  0.60816563  0.75000000  1.0
  C  C7  1  0.25000000  0.14183437  0.89183437  1.0
  C  C8  1  0.14183437  0.89183437  0.25000000  1.0
  C  C9  1  0.75000000  0.35816563  0.60816563  1.0
  C  C10  1  0.89183437  0.25000000  0.14183437  1.0
  C  C11  1  0.14183437  0.75000000  0.89183437  1.0
  S  S20  1  0.25000000  0.25000000  0.25000000  1.0
  S  S21  1  0.00000000  0.25000000  0.50000000  1.0
  S  S22  1  0.25000000  0.50000000  0.00000000  1.0
  S  S23  1  0.50000000  0.00000000  0.25000000  1.0
