# generated using pymatgen
data_P3Ir3Os
_symmetry_space_group_name_H-M   'P 1'
_cell_length_a   6.89275673
_cell_length_b   6.89275668
_cell_length_c   6.89275576
_cell_angle_alpha   101.78326832
_cell_angle_beta   101.78327729
_cell_angle_gamma   101.78326626
_symmetry_Int_Tables_number   1
_chemical_formula_structural   P3Ir3Os
_chemical_formula_sum   'P6 Ir6 Os2'
_cell_volume   303.31065946
_cell_formula_units_Z   2
loop_
 _symmetry_equiv_pos_site_id
 _symmetry_equiv_pos_as_xyz
  1  'x, y, z'
loop_
 _atom_site_type_symbol
 _atom_site_label
 _atom_site_symmetry_multiplicity
 _atom_site_fract_x
 _atom_site_fract_y
 _atom_site_fract_z
 _atom_site_occupancy
  P  P0  1  0.38852797  0.59779144  0.05476860  1.0
  P  P1  1  0.55476860  0.09779144  0.88852797  1.0
  P  P2  1  0.05476860  0.38852797  0.59779144  1.0
  P  P3  1  0.88852797  0.55476860  0.09779144  1.0
  P  P4  1  0.59779144  0.05476860  0.38852797  1.0
  P  P5  1  0.09779144  0.88852797  0.55476860  1.0
  Ir  Ir8  1  0.73027452  0.41445338  0.39826704  1.0
  Ir  Ir9  1  0.39826704  0.73027452  0.41445338  1.0
  Ir  Ir10  1  0.91445338  0.23027452  0.89826704  1.0
  Ir  Ir11  1  0.41445338  0.39826704  0.73027452  1.0
  Ir  Ir12  1  0.23027452  0.89826704  0.91445338  1.0
  Ir  Ir13  1  0.89826704  0.91445338  0.23027452  1.0
  Os  Os6  1  0.63411406  0.63411406  0.63411406  1.0
  Os  Os7  1  0.13411406  0.13411406  0.13411406  1.0
