# generated using pymatgen
data_PrAs2Os
_symmetry_space_group_name_H-M   'P 1'
_cell_length_a   8.25064040
_cell_length_b   8.25064040
_cell_length_c   6.01746572
_cell_angle_alpha   59.73248554
_cell_angle_beta   120.26751446
_cell_angle_gamma   74.16350635
_symmetry_Int_Tables_number   1
_chemical_formula_structural   PrAs2Os
_chemical_formula_sum   'Pr4 As8 Os4'
_cell_volume   216.27447757
_cell_formula_units_Z   4
loop_
 _symmetry_equiv_pos_site_id
 _symmetry_equiv_pos_as_xyz
  1  'x, y, z'
loop_
 _atom_site_type_symbol
 _atom_site_label
 _atom_site_symmetry_multiplicity
 _atom_site_fract_x
 _atom_site_fract_y
 _atom_site_fract_z
 _atom_site_occupancy
  Pr  Pr0  1  0.69416643  0.69416643  0.75000000  1.0
  Pr  Pr1  1  0.93010816  0.93010816  0.75000000  1.0
  Pr  Pr2  1  0.06989184  0.06989184  0.25000000  1.0
  Pr  Pr3  1  0.30583357  0.30583357  0.25000000  1.0
  As  As8  1  0.20787326  0.66832932  0.74932784  1.0
  As  As9  1  0.43695772  0.93612522  0.79250067  1.0
  As  As10  1  0.33167068  0.79212674  0.24932784  1.0
  As  As11  1  0.06387478  0.56304228  0.29250067  1.0
  As  As12  1  0.93612522  0.43695772  0.70749933  1.0
  As  As13  1  0.66832932  0.20787326  0.75067216  1.0
  As  As14  1  0.56304228  0.06387478  0.20749933  1.0
  As  As15  1  0.79212674  0.33167068  0.25067216  1.0
  Os  Os4  1  0.18265860  0.18265860  0.75000000  1.0
  Os  Os5  1  0.44332146  0.44332146  0.75000000  1.0
  Os  Os6  1  0.81734140  0.81734140  0.25000000  1.0
  Os  Os7  1  0.55667854  0.55667854  0.25000000  1.0
