# generated using pymatgen
data_Re2AuN3
_symmetry_space_group_name_H-M   'P 1'
_cell_length_a   9.05928283
_cell_length_b   9.05928283
_cell_length_c   9.05928283
_cell_angle_alpha   109.47122063
_cell_angle_beta   109.47122063
_cell_angle_gamma   109.47122063
_symmetry_Int_Tables_number   1
_chemical_formula_structural   Re2AuN3
_chemical_formula_sum   'Re8 Au4 N12'
_cell_volume   572.34720303
_cell_formula_units_Z   4
loop_
 _symmetry_equiv_pos_site_id
 _symmetry_equiv_pos_as_xyz
  1  'x, y, z'
loop_
 _atom_site_type_symbol
 _atom_site_label
 _atom_site_symmetry_multiplicity
 _atom_site_fract_x
 _atom_site_fract_y
 _atom_site_fract_z
 _atom_site_occupancy
  Re  Re12  1  0.50000000  0.00000000  0.95946528  1.0
  Re  Re13  1  0.54053472  0.50000000  0.00000000  1.0
  Re  Re14  1  0.95946528  0.95946528  0.95946528  1.0
  Re  Re15  1  0.00000000  0.54053472  0.50000000  1.0
  Re  Re16  1  0.50000000  0.00000000  0.54053472  1.0
  Re  Re17  1  0.95946528  0.50000000  0.00000000  1.0
  Re  Re18  1  0.00000000  0.95946528  0.50000000  1.0
  Re  Re19  1  0.54053472  0.54053472  0.54053472  1.0
  Au  Au20  1  0.25000000  0.25000000  0.25000000  1.0
  Au  Au21  1  0.00000000  0.25000000  0.50000000  1.0
  Au  Au22  1  0.25000000  0.50000000  0.00000000  1.0
  Au  Au23  1  0.50000000  0.00000000  0.25000000  1.0
  N  N0  1  0.60816563  0.75000000  0.35816563  1.0
  N  N1  1  0.25000000  0.60816563  0.35816563  1.0
  N  N2  1  0.75000000  0.89183437  0.14183437  1.0
  N  N3  1  0.60816563  0.35816563  0.25000000  1.0
  N  N4  1  0.89183437  0.14183437  0.75000000  1.0
  N  N5  1  0.35816563  0.25000000  0.60816563  1.0
  N  N6  1  0.35816563  0.60816563  0.75000000  1.0
  N  N7  1  0.25000000  0.14183437  0.89183437  1.0
  N  N8  1  0.14183437  0.89183437  0.25000000  1.0
  N  N9  1  0.75000000  0.35816563  0.60816563  1.0
  N  N10  1  0.89183437  0.25000000  0.14183437  1.0
  N  N11  1  0.14183437  0.75000000  0.89183437  1.0
