# generated using pymatgen
data_ReIr2S3
_symmetry_space_group_name_H-M   'P 1'
_cell_length_a   9.05928283
_cell_length_b   9.05928283
_cell_length_c   9.05928283
_cell_angle_alpha   109.47122063
_cell_angle_beta   109.47122063
_cell_angle_gamma   109.47122063
_symmetry_Int_Tables_number   1
_chemical_formula_structural   ReIr2S3
_chemical_formula_sum   'Re4 Ir8 S12'
_cell_volume   572.34720303
_cell_formula_units_Z   4
loop_
 _symmetry_equiv_pos_site_id
 _symmetry_equiv_pos_as_xyz
  1  'x, y, z'
loop_
 _atom_site_type_symbol
 _atom_site_label
 _atom_site_symmetry_multiplicity
 _atom_site_fract_x
 _atom_site_fract_y
 _atom_site_fract_z
 _atom_site_occupancy
  Re  Re20  1  0.25000000  0.25000000  0.25000000  1.0
  Re  Re21  1  0.00000000  0.25000000  0.50000000  1.0
  Re  Re22  1  0.25000000  0.50000000  0.00000000  1.0
  Re  Re23  1  0.50000000  0.00000000  0.25000000  1.0
  Ir  Ir12  1  0.50000000  0.00000000  0.95946528  1.0
  Ir  Ir13  1  0.54053472  0.50000000  0.00000000  1.0
  Ir  Ir14  1  0.95946528  0.95946528  0.95946528  1.0
  Ir  Ir15  1  0.00000000  0.54053472  0.50000000  1.0
  Ir  Ir16  1  0.50000000  0.00000000  0.54053472  1.0
  Ir  Ir17  1  0.95946528  0.50000000  0.00000000  1.0
  Ir  Ir18  1  0.00000000  0.95946528  0.50000000  1.0
  Ir  Ir19  1  0.54053472  0.54053472  0.54053472  1.0
  S  S0  1  0.60816563  0.75000000  0.35816563  1.0
  S  S1  1  0.25000000  0.60816563  0.35816563  1.0
  S  S2  1  0.75000000  0.89183437  0.14183437  1.0
  S  S3  1  0.60816563  0.35816563  0.25000000  1.0
  S  S4  1  0.89183437  0.14183437  0.75000000  1.0
  S  S5  1  0.35816563  0.25000000  0.60816563  1.0
  S  S6  1  0.35816563  0.60816563  0.75000000  1.0
  S  S7  1  0.25000000  0.14183437  0.89183437  1.0
  S  S8  1  0.14183437  0.89183437  0.25000000  1.0
  S  S9  1  0.75000000  0.35816563  0.60816563  1.0
  S  S10  1  0.89183437  0.25000000  0.14183437  1.0
  S  S11  1  0.14183437  0.75000000  0.89183437  1.0
