# generated using pymatgen
data_Sb3OsW3
_symmetry_space_group_name_H-M   'P 1'
_cell_length_a   6.79871743
_cell_length_b   6.79871743
_cell_length_c   16.97842039
_cell_angle_alpha   72.37011292
_cell_angle_beta   72.37011292
_cell_angle_gamma   55.71767178
_symmetry_Int_Tables_number   1
_chemical_formula_structural   Sb3OsW3
_chemical_formula_sum   'Sb12 Os4 W12'
_cell_volume   609.21065522
_cell_formula_units_Z   4
loop_
 _symmetry_equiv_pos_site_id
 _symmetry_equiv_pos_as_xyz
  1  'x, y, z'
loop_
 _atom_site_type_symbol
 _atom_site_label
 _atom_site_symmetry_multiplicity
 _atom_site_fract_x
 _atom_site_fract_y
 _atom_site_fract_z
 _atom_site_occupancy
  Sb  Sb16  1  0.35017250  0.96138679  0.41349770  1.0
  Sb  Sb17  1  0.56936740  0.28270110  0.17477064  1.0
  Sb  Sb18  1  0.98182974  0.69276914  0.35932295  1.0
  Sb  Sb19  1  0.30723086  0.01817026  0.14067705  1.0
  Sb  Sb20  1  0.71729890  0.43063260  0.32522936  1.0
  Sb  Sb21  1  0.01817026  0.30723086  0.64067705  1.0
  Sb  Sb22  1  0.69276914  0.98182974  0.85932295  1.0
  Sb  Sb23  1  0.43063260  0.71729890  0.82522936  1.0
  Sb  Sb24  1  0.96138679  0.35017250  0.91349770  1.0
  Sb  Sb25  1  0.03861321  0.64982750  0.08650230  1.0
  Sb  Sb26  1  0.64982750  0.03861321  0.58650230  1.0
  Sb  Sb27  1  0.28270110  0.56936740  0.67477064  1.0
  Os  Os12  1  0.40998643  0.29811984  0.07243357  1.0
  Os  Os13  1  0.70188016  0.59001357  0.42756643  1.0
  Os  Os14  1  0.29811984  0.40998643  0.57243357  1.0
  Os  Os15  1  0.59001357  0.70188016  0.92756643  1.0
  W  W0  1  0.89814058  0.83355002  0.21477365  1.0
  W  W1  1  0.16644998  0.10185942  0.28522635  1.0
  W  W2  1  0.68372047  0.59680542  0.13409335  1.0
  W  W3  1  0.31627953  0.40319458  0.86590665  1.0
  W  W4  1  0.01566939  0.85320851  0.93848258  1.0
  W  W5  1  0.85320851  0.01566939  0.43848258  1.0
  W  W6  1  0.10185942  0.16644998  0.78522635  1.0
  W  W7  1  0.14679149  0.98433061  0.56151742  1.0
  W  W8  1  0.40319458  0.31627953  0.36590665  1.0
  W  W9  1  0.98433061  0.14679149  0.06151742  1.0
  W  W10  1  0.83355002  0.89814058  0.71477365  1.0
  W  W11  1  0.59680542  0.68372047  0.63409335  1.0
