# generated using pymatgen
data_SbP2Os3
_symmetry_space_group_name_H-M   'P 1'
_cell_length_a   7.57421063
_cell_length_b   7.57421063
_cell_length_c   17.69036100
_cell_angle_alpha   90.00000000
_cell_angle_beta   90.00000000
_cell_angle_gamma   120.00000549
_symmetry_Int_Tables_number   1
_chemical_formula_structural   SbP2Os3
_chemical_formula_sum   'Sb6 P12 Os18'
_cell_volume   878.90525168
_cell_formula_units_Z   6
loop_
 _symmetry_equiv_pos_site_id
 _symmetry_equiv_pos_as_xyz
  1  'x, y, z'
loop_
 _atom_site_type_symbol
 _atom_site_label
 _atom_site_symmetry_multiplicity
 _atom_site_fract_x
 _atom_site_fract_y
 _atom_site_fract_z
 _atom_site_occupancy
  Sb  Sb0  1  0.33333333  0.66666667  0.99670600  1.0
  Sb  Sb1  1  0.66666667  0.33333333  0.00329400  1.0
  Sb  Sb2  1  0.66666667  0.33333333  0.49670600  1.0
  Sb  Sb3  1  0.33333333  0.66666667  0.50329400  1.0
  Sb  Sb4  1  0.00000000  0.00000000  0.00000000  1.0
  Sb  Sb5  1  0.00000000  0.00000000  0.50000000  1.0
  P  P24  1  0.66983600  0.00643200  0.41697000  1.0
  P  P25  1  0.00643200  0.66983600  0.91697000  1.0
  P  P26  1  0.33659600  0.00643200  0.08303000  1.0
  P  P27  1  0.66983600  0.66340400  0.08303000  1.0
  P  P28  1  0.99356800  0.33016400  0.08303000  1.0
  P  P29  1  0.99356800  0.66340400  0.41697000  1.0
  P  P30  1  0.33659600  0.33016400  0.41697000  1.0
  P  P31  1  0.33016400  0.99356800  0.58303000  1.0
  P  P32  1  0.66340400  0.99356800  0.91697000  1.0
  P  P33  1  0.00643200  0.33659600  0.58303000  1.0
  P  P34  1  0.66340400  0.66983600  0.58303000  1.0
  P  P35  1  0.33016400  0.33659600  0.91697000  1.0
  Os  Os6  1  0.16679000  0.83321000  0.25000000  1.0
  Os  Os7  1  0.33358100  0.16679000  0.75000000  1.0
  Os  Os8  1  0.83321000  0.16679000  0.75000000  1.0
  Os  Os9  1  0.83321000  0.66641900  0.75000000  1.0
  Os  Os10  1  0.66641900  0.83321000  0.25000000  1.0
  Os  Os11  1  0.16679000  0.33358100  0.25000000  1.0
  Os  Os12  1  0.94646200  0.66787100  0.85554500  1.0
  Os  Os13  1  0.94646200  0.27859100  0.64445500  1.0
  Os  Os14  1  0.66787100  0.72140900  0.14445500  1.0
  Os  Os15  1  0.05353800  0.33212900  0.14445500  1.0
  Os  Os16  1  0.72140900  0.66787100  0.64445500  1.0
  Os  Os17  1  0.72140900  0.05353800  0.85554500  1.0
  Os  Os18  1  0.33212900  0.27859100  0.85554500  1.0
  Os  Os19  1  0.66787100  0.94646200  0.35554500  1.0
  Os  Os20  1  0.27859100  0.94646200  0.14445500  1.0
  Os  Os21  1  0.33212900  0.05353800  0.64445500  1.0
  Os  Os22  1  0.27859100  0.33212900  0.35554500  1.0
  Os  Os23  1  0.05353800  0.72140900  0.35554500  1.0
