# generated using pymatgen
data_ScP2Ir
_symmetry_space_group_name_H-M   'P 1'
_cell_length_a   4.42952238
_cell_length_b   4.42952184
_cell_length_c   4.42952236
_cell_angle_alpha   59.99999634
_cell_angle_beta   59.99999322
_cell_angle_gamma   59.99999751
_symmetry_Int_Tables_number   1
_chemical_formula_structural   ScP2Ir
_chemical_formula_sum   'Sc1 P2 Ir1'
_cell_volume   61.45477114
_cell_formula_units_Z   1
loop_
 _symmetry_equiv_pos_site_id
 _symmetry_equiv_pos_as_xyz
  1  'x, y, z'
loop_
 _atom_site_type_symbol
 _atom_site_label
 _atom_site_symmetry_multiplicity
 _atom_site_fract_x
 _atom_site_fract_y
 _atom_site_fract_z
 _atom_site_occupancy
  Sc  Sc0  1  0.99999960  0.00000006  0.00000003  1.0
  P  P1  1  0.25000012  0.24999998  0.25000000  1.0
  P  P2  1  0.75000015  0.74999995  0.75000000  1.0
  Ir  Ir3  1  0.50000012  0.50000000  0.49999998  1.0
