# generated using pymatgen
data_ScReP2
_symmetry_space_group_name_H-M   'P 1'
_cell_length_a   4.38376114
_cell_length_b   4.38375992
_cell_length_c   4.38376163
_cell_angle_alpha   59.99999909
_cell_angle_beta   59.99999791
_cell_angle_gamma   60.00001990
_symmetry_Int_Tables_number   1
_chemical_formula_structural   ScReP2
_chemical_formula_sum   'Sc1 Re1 P2'
_cell_volume   59.56973017
_cell_formula_units_Z   1
loop_
 _symmetry_equiv_pos_site_id
 _symmetry_equiv_pos_as_xyz
  1  'x, y, z'
loop_
 _atom_site_type_symbol
 _atom_site_label
 _atom_site_symmetry_multiplicity
 _atom_site_fract_x
 _atom_site_fract_y
 _atom_site_fract_z
 _atom_site_occupancy
  Sc  Sc0  1  0.00000001  0.99999996  0.00000004  1.0
  Re  Re1  1  0.49999995  0.50000008  0.49999996  1.0
  P  P2  1  0.24999999  0.25000003  0.25000008  1.0
  P  P3  1  0.75000004  0.74999992  0.74999992  1.0
