# generated using pymatgen
data_Si2MoIr
_symmetry_space_group_name_H-M   'P 1'
_cell_length_a   3.41635502
_cell_length_b   3.41635473
_cell_length_c   6.14535726
_cell_angle_alpha   90.00000018
_cell_angle_beta   90.00000095
_cell_angle_gamma   120.00000446
_symmetry_Int_Tables_number   1
_chemical_formula_structural   Si2MoIr
_chemical_formula_sum   'Si2 Mo1 Ir1'
_cell_volume   62.11603150
_cell_formula_units_Z   1
loop_
 _symmetry_equiv_pos_site_id
 _symmetry_equiv_pos_as_xyz
  1  'x, y, z'
loop_
 _atom_site_type_symbol
 _atom_site_label
 _atom_site_symmetry_multiplicity
 _atom_site_fract_x
 _atom_site_fract_y
 _atom_site_fract_z
 _atom_site_occupancy
  Si  Si0  1  0.33333333  0.66666667  0.26417755  1.0
  Si  Si1  1  0.66666667  0.33333333  0.73582245  1.0
  Mo  Mo2  1  0.99999999  0.99999998  0.00000000  1.0
  Ir  Ir3  1  0.00000001  0.00000002  0.50000000  1.0
