# generated using pymatgen
data_Si2OsRh
_symmetry_space_group_name_H-M   'P 1'
_cell_length_a   4.23471295
_cell_length_b   4.23471303
_cell_length_c   4.23471290
_cell_angle_alpha   60.00000004
_cell_angle_beta   59.99999984
_cell_angle_gamma   59.99999942
_symmetry_Int_Tables_number   1
_chemical_formula_structural   Si2OsRh
_chemical_formula_sum   'Si2 Os1 Rh1'
_cell_volume   53.69785452
_cell_formula_units_Z   1
loop_
 _symmetry_equiv_pos_site_id
 _symmetry_equiv_pos_as_xyz
  1  'x, y, z'
loop_
 _atom_site_type_symbol
 _atom_site_label
 _atom_site_symmetry_multiplicity
 _atom_site_fract_x
 _atom_site_fract_y
 _atom_site_fract_z
 _atom_site_occupancy
  Si  Si0  1  0.25000001  0.25000000  0.25000000  1.0
  Si  Si1  1  0.75000000  0.75000000  0.75000000  1.0
  Os  Os2  1  0.50000000  0.50000001  0.50000000  1.0
  Rh  Rh3  1  0.99999999  0.99999999  0.00000000  1.0
