# generated using pymatgen
data_Si2PdRu
_symmetry_space_group_name_H-M   'P 1'
_cell_length_a   4.27612159
_cell_length_b   4.27612134
_cell_length_c   4.27612116
_cell_angle_alpha   59.99999464
_cell_angle_beta   59.99999288
_cell_angle_gamma   59.99999462
_symmetry_Int_Tables_number   1
_chemical_formula_structural   Si2PdRu
_chemical_formula_sum   'Si2 Pd1 Ru1'
_cell_volume   55.28852599
_cell_formula_units_Z   1
loop_
 _symmetry_equiv_pos_site_id
 _symmetry_equiv_pos_as_xyz
  1  'x, y, z'
loop_
 _atom_site_type_symbol
 _atom_site_label
 _atom_site_symmetry_multiplicity
 _atom_site_fract_x
 _atom_site_fract_y
 _atom_site_fract_z
 _atom_site_occupancy
  Si  Si0  1  0.50000088  0.50000089  0.50000089  1.0
  Si  Si1  1  0.00000002  0.00000002  0.00000003  1.0
  Pd  Pd2  1  0.25000003  0.25000002  0.25000003  1.0
  Ru  Ru3  1  0.74999908  0.74999907  0.74999905  1.0
