# generated using pymatgen
data_SiGeIr
_symmetry_space_group_name_H-M   'P 1'
_cell_length_a   4.55283989
_cell_length_b   4.55283983
_cell_length_c   4.55283901
_cell_angle_alpha   60.00000603
_cell_angle_beta   60.00000646
_cell_angle_gamma   60.00001235
_symmetry_Int_Tables_number   1
_chemical_formula_structural   SiGeIr
_chemical_formula_sum   'Si1 Ge1 Ir1'
_cell_volume   66.73169055
_cell_formula_units_Z   1
loop_
 _symmetry_equiv_pos_site_id
 _symmetry_equiv_pos_as_xyz
  1  'x, y, z'
loop_
 _atom_site_type_symbol
 _atom_site_label
 _atom_site_symmetry_multiplicity
 _atom_site_fract_x
 _atom_site_fract_y
 _atom_site_fract_z
 _atom_site_occupancy
  Si  Si0  1  0.00000000  0.00000000  0.00000000  1.0
  Ge  Ge1  1  0.50000000  0.50000000  0.50000000  1.0
  Ir  Ir2  1  0.25000000  0.25000000  0.25000000  1.0
