# generated using pymatgen
data_SiIrN2
_symmetry_space_group_name_H-M   'P 1'
_cell_length_a   8.70629545
_cell_length_b   8.70629545
_cell_length_c   8.70629570
_cell_angle_alpha   106.81611232
_cell_angle_beta   106.81611232
_cell_angle_gamma   106.81611372
_symmetry_Int_Tables_number   1
_chemical_formula_structural   SiIrN2
_chemical_formula_sum   'Si6 Ir6 N12'
_cell_volume   552.33271443
_cell_formula_units_Z   6
loop_
 _symmetry_equiv_pos_site_id
 _symmetry_equiv_pos_as_xyz
  1  'x, y, z'
loop_
 _atom_site_type_symbol
 _atom_site_label
 _atom_site_symmetry_multiplicity
 _atom_site_fract_x
 _atom_site_fract_y
 _atom_site_fract_z
 _atom_site_occupancy
  Si  Si0  1  0.32214300  0.72954100  0.90323300  1.0
  Si  Si1  1  0.72954100  0.90323300  0.32214300  1.0
  Si  Si2  1  0.90323300  0.32214300  0.72954100  1.0
  Si  Si3  1  0.67785700  0.27045900  0.09676700  1.0
  Si  Si4  1  0.27045900  0.09676700  0.67785700  1.0
  Si  Si5  1  0.09676700  0.67785700  0.27045900  1.0
  Ir  Ir6  1  0.12938700  0.34065400  0.41740800  1.0
  Ir  Ir7  1  0.58259200  0.87061300  0.65934600  1.0
  Ir  Ir8  1  0.87061300  0.65934600  0.58259200  1.0
  Ir  Ir9  1  0.34065400  0.41740800  0.12938700  1.0
  Ir  Ir10  1  0.41740800  0.12938700  0.34065400  1.0
  Ir  Ir11  1  0.65934600  0.58259200  0.87061300  1.0
  N  N12  1  0.14229500  0.06458300  0.34784800  1.0
  N  N13  1  0.06458300  0.34784800  0.14229500  1.0
  N  N14  1  0.34784800  0.14229500  0.06458300  1.0
  N  N15  1  0.85770500  0.93541700  0.65215200  1.0
  N  N16  1  0.93541700  0.65215200  0.85770500  1.0
  N  N17  1  0.65215200  0.85770500  0.93541700  1.0
  N  N18  1  0.84814900  0.24221500  0.38544700  1.0
  N  N19  1  0.24221500  0.38544700  0.84814900  1.0
  N  N20  1  0.61455300  0.15185100  0.75778500  1.0
  N  N21  1  0.15185100  0.75778500  0.61455300  1.0
  N  N22  1  0.75778500  0.61455300  0.15185100  1.0
  N  N23  1  0.38544700  0.84814900  0.24221500  1.0
