# generated using pymatgen
data_Ta4Si12Pt7
_symmetry_space_group_name_H-M   'P 1'
_cell_length_a   8.58282200
_cell_length_b   8.58282200
_cell_length_c   6.45047000
_cell_angle_alpha   90.00000000
_cell_angle_beta   90.00000000
_cell_angle_gamma   90.00000000
_symmetry_Int_Tables_number   1
_chemical_formula_structural   Ta4Si12Pt7
_chemical_formula_sum   'Ta8 Si24 Pt14'
_cell_volume   475.17279844
_cell_formula_units_Z   2
loop_
 _symmetry_equiv_pos_site_id
 _symmetry_equiv_pos_as_xyz
  1  'x, y, z'
loop_
 _atom_site_type_symbol
 _atom_site_label
 _atom_site_symmetry_multiplicity
 _atom_site_fract_x
 _atom_site_fract_y
 _atom_site_fract_z
 _atom_site_occupancy
  Ta  Ta38  1  0.62724100  0.56506300  0.63344300  1.0
  Ta  Ta39  1  0.87275900  0.06506300  0.86655700  1.0
  Ta  Ta40  1  0.37275900  0.43493700  0.63344300  1.0
  Ta  Ta41  1  0.12724100  0.93493700  0.86655700  1.0
  Ta  Ta42  1  0.43493700  0.62724100  0.36655700  1.0
  Ta  Ta43  1  0.93493700  0.87275900  0.13344300  1.0
  Ta  Ta44  1  0.56506300  0.37275900  0.36655700  1.0
  Ta  Ta45  1  0.06506300  0.12724100  0.13344300  1.0
  Si  Si4  1  0.58475300  0.70208200  0.88022700  1.0
  Si  Si5  1  0.91524700  0.20208200  0.61977300  1.0
  Si  Si6  1  0.41524700  0.29791800  0.88022700  1.0
  Si  Si7  1  0.08475300  0.79791800  0.61977300  1.0
  Si  Si8  1  0.29791800  0.58475300  0.11977300  1.0
  Si  Si9  1  0.79791800  0.91524700  0.38022700  1.0
  Si  Si10  1  0.70208200  0.41524700  0.11977300  1.0
  Si  Si11  1  0.20208200  0.08475300  0.38022700  1.0
  Si  Si12  1  0.71857100  0.78755500  0.02917400  1.0
  Si  Si13  1  0.78142900  0.28755500  0.47082600  1.0
  Si  Si14  1  0.28142900  0.21244500  0.02917400  1.0
  Si  Si15  1  0.21857100  0.71244500  0.47082600  1.0
  Si  Si16  1  0.21244500  0.71857100  0.97082600  1.0
  Si  Si17  1  0.71244500  0.78142900  0.52917400  1.0
  Si  Si18  1  0.78755500  0.28142900  0.97082600  1.0
  Si  Si19  1  0.28755500  0.21857100  0.52917400  1.0
  Si  Si20  1  0.55565800  0.71659700  0.13653200  1.0
  Si  Si21  1  0.94434200  0.21659700  0.36346800  1.0
  Si  Si22  1  0.44434200  0.28340300  0.13653200  1.0
  Si  Si23  1  0.05565800  0.78340300  0.36346800  1.0
  Si  Si24  1  0.28340300  0.55565800  0.86346800  1.0
  Si  Si25  1  0.78340300  0.94434200  0.63653200  1.0
  Si  Si26  1  0.71659700  0.44434200  0.86346800  1.0
  Si  Si27  1  0.21659700  0.05565800  0.63653200  1.0
  Pt  Pt0  1  0.50000000  0.00000000  0.98514300  1.0
  Pt  Pt1  1  0.00000000  0.50000000  0.51485700  1.0
  Pt  Pt2  1  0.00000000  0.50000000  0.01485700  1.0
  Pt  Pt3  1  0.50000000  0.00000000  0.48514300  1.0
  Pt  Pt28  1  0.50000000  0.50000000  0.50000000  1.0
  Pt  Pt29  1  0.00000000  0.00000000  0.00000000  1.0
  Pt  Pt30  1  0.60048900  0.77234400  0.00796700  1.0
  Pt  Pt31  1  0.89951100  0.27234400  0.49203300  1.0
  Pt  Pt32  1  0.39951100  0.22765600  0.00796700  1.0
  Pt  Pt33  1  0.10048900  0.72765600  0.49203300  1.0
  Pt  Pt34  1  0.22765600  0.60048900  0.99203300  1.0
  Pt  Pt35  1  0.72765600  0.89951100  0.50796700  1.0
  Pt  Pt36  1  0.77234400  0.39951100  0.99203300  1.0
  Pt  Pt37  1  0.27234400  0.10048900  0.50796700  1.0
