# generated using pymatgen
data_TaCrSi2
_symmetry_space_group_name_H-M   'P 1'
_cell_length_a   4.32080600
_cell_length_b   4.32080644
_cell_length_c   4.32080647
_cell_angle_alpha   60.00000593
_cell_angle_beta   60.00001454
_cell_angle_gamma   60.00000665
_symmetry_Int_Tables_number   1
_chemical_formula_structural   TaCrSi2
_chemical_formula_sum   'Ta1 Cr1 Si2'
_cell_volume   57.03999578
_cell_formula_units_Z   1
loop_
 _symmetry_equiv_pos_site_id
 _symmetry_equiv_pos_as_xyz
  1  'x, y, z'
loop_
 _atom_site_type_symbol
 _atom_site_label
 _atom_site_symmetry_multiplicity
 _atom_site_fract_x
 _atom_site_fract_y
 _atom_site_fract_z
 _atom_site_occupancy
  Ta  Ta0  1  0.50000000  0.50000001  0.50000000  1.0
  Cr  Cr1  1  0.00000000  0.99999998  0.00000000  1.0
  Si  Si2  1  0.24999998  0.25000002  0.25000001  1.0
  Si  Si3  1  0.75000002  0.74999999  0.75000000  1.0
