# generated using pymatgen
data_TiAs3Ir2
_symmetry_space_group_name_H-M   'P 1'
_cell_length_a   8.69096013
_cell_length_b   8.69096013
_cell_length_c   8.69096013
_cell_angle_alpha   109.47122063
_cell_angle_beta   109.47122063
_cell_angle_gamma   109.47122063
_symmetry_Int_Tables_number   1
_chemical_formula_structural   TiAs3Ir2
_chemical_formula_sum   'Ti4 As12 Ir8'
_cell_volume   505.33733082
_cell_formula_units_Z   4
loop_
 _symmetry_equiv_pos_site_id
 _symmetry_equiv_pos_as_xyz
  1  'x, y, z'
loop_
 _atom_site_type_symbol
 _atom_site_label
 _atom_site_symmetry_multiplicity
 _atom_site_fract_x
 _atom_site_fract_y
 _atom_site_fract_z
 _atom_site_occupancy
  Ti  Ti12  1  0.25000000  0.25000000  0.25000000  1.0
  Ti  Ti13  1  0.00000000  0.25000000  0.50000000  1.0
  Ti  Ti14  1  0.25000000  0.50000000  0.00000000  1.0
  Ti  Ti15  1  0.50000000  0.00000000  0.25000000  1.0
  As  As0  1  0.25000000  0.12904596  0.87904596  1.0
  As  As1  1  0.12904596  0.87904596  0.25000000  1.0
  As  As2  1  0.87904596  0.25000000  0.12904596  1.0
  As  As3  1  0.12904596  0.75000000  0.87904596  1.0
  As  As4  1  0.62095404  0.75000000  0.37095404  1.0
  As  As5  1  0.37095404  0.25000000  0.62095404  1.0
  As  As6  1  0.87904596  0.12904596  0.75000000  1.0
  As  As7  1  0.62095404  0.37095404  0.25000000  1.0
  As  As8  1  0.75000000  0.87904596  0.12904596  1.0
  As  As9  1  0.25000000  0.62095404  0.37095404  1.0
  As  As10  1  0.75000000  0.37095404  0.62095404  1.0
  As  As11  1  0.37095404  0.62095404  0.75000000  1.0
  Ir  Ir16  1  0.50000000  0.00000000  0.96483143  1.0
  Ir  Ir17  1  0.96483143  0.50000000  0.00000000  1.0
  Ir  Ir18  1  0.50000000  0.00000000  0.53516857  1.0
  Ir  Ir19  1  0.00000000  0.53516857  0.50000000  1.0
  Ir  Ir20  1  0.96483143  0.96483143  0.96483143  1.0
  Ir  Ir21  1  0.53516857  0.50000000  0.00000000  1.0
  Ir  Ir22  1  0.53516857  0.53516857  0.53516857  1.0
  Ir  Ir23  1  0.00000000  0.96483143  0.50000000  1.0
