# generated using pymatgen
data_TiBeN2
_symmetry_space_group_name_H-M   'P 1'
_cell_length_a   2.87694886
_cell_length_b   2.87694887
_cell_length_c   4.80634316
_cell_angle_alpha   90.00060813
_cell_angle_beta   89.99939179
_cell_angle_gamma   120.00031547
_symmetry_Int_Tables_number   1
_chemical_formula_structural   TiBeN2
_chemical_formula_sum   'Ti1 Be1 N2'
_cell_volume   34.45151397
_cell_formula_units_Z   1
loop_
 _symmetry_equiv_pos_site_id
 _symmetry_equiv_pos_as_xyz
  1  'x, y, z'
loop_
 _atom_site_type_symbol
 _atom_site_label
 _atom_site_symmetry_multiplicity
 _atom_site_fract_x
 _atom_site_fract_y
 _atom_site_fract_z
 _atom_site_occupancy
  Ti  Ti0  1  0.00000000  0.00000000  0.00000000  1.0
  Be  Be1  1  0.00000000  0.99999999  0.50000000  1.0
  N  N2  1  0.33333333  0.66666667  0.73905568  1.0
  N  N3  1  0.66666667  0.33333333  0.26094433  1.0
