# generated using pymatgen
data_TiSi2Rh
_symmetry_space_group_name_H-M   'P 1'
_cell_length_a   4.14447420
_cell_length_b   4.14447420
_cell_length_c   10.91442000
_cell_angle_alpha   90.00000000
_cell_angle_beta   90.00000000
_cell_angle_gamma   120.00000319
_symmetry_Int_Tables_number   1
_chemical_formula_structural   TiSi2Rh
_chemical_formula_sum   'Ti2 Si4 Rh2'
_cell_volume   162.35667948
_cell_formula_units_Z   2
loop_
 _symmetry_equiv_pos_site_id
 _symmetry_equiv_pos_as_xyz
  1  'x, y, z'
loop_
 _atom_site_type_symbol
 _atom_site_label
 _atom_site_symmetry_multiplicity
 _atom_site_fract_x
 _atom_site_fract_y
 _atom_site_fract_z
 _atom_site_occupancy
  Ti  Ti0  1  0.00000000  0.00000000  0.17887600  1.0
  Ti  Ti1  1  0.00000000  0.00000000  0.82112400  1.0
  Si  Si4  1  0.33333333  0.66666667  0.00306200  1.0
  Si  Si5  1  0.66666667  0.33333333  0.99693800  1.0
  Si  Si6  1  0.33333333  0.66666667  0.64911100  1.0
  Si  Si7  1  0.66666667  0.33333333  0.35088900  1.0
  Rh  Rh2  1  0.66666667  0.33333333  0.58586000  1.0
  Rh  Rh3  1  0.33333333  0.66666667  0.41414000  1.0
