# generated using pymatgen
data_TmReN2
_symmetry_space_group_name_H-M   'P 1'
_cell_length_a   3.02789821
_cell_length_b   3.02789646
_cell_length_c   5.94543187
_cell_angle_alpha   90.00002478
_cell_angle_beta   90.00000426
_cell_angle_gamma   120.00000041
_symmetry_Int_Tables_number   1
_chemical_formula_structural   TmReN2
_chemical_formula_sum   'Tm1 Re1 N2'
_cell_volume   47.20590501
_cell_formula_units_Z   1
loop_
 _symmetry_equiv_pos_site_id
 _symmetry_equiv_pos_as_xyz
  1  'x, y, z'
loop_
 _atom_site_type_symbol
 _atom_site_label
 _atom_site_symmetry_multiplicity
 _atom_site_fract_x
 _atom_site_fract_y
 _atom_site_fract_z
 _atom_site_occupancy
  Tm  Tm0  1  0.99999960  0.99999976  0.50000013  1.0
  Re  Re1  1  0.00000029  0.00000017  0.00000005  1.0
  N  N2  1  0.66666667  0.33333333  0.77564565  1.0
  N  N3  1  0.33333333  0.66666667  0.22435418  1.0
