# generated using pymatgen
data_VFeN2
_symmetry_space_group_name_H-M   'P 1'
_cell_length_a   2.79049130
_cell_length_b   2.79049144
_cell_length_c   5.03990020
_cell_angle_alpha   90.00000056
_cell_angle_beta   89.99998996
_cell_angle_gamma   119.99998795
_symmetry_Int_Tables_number   1
_chemical_formula_structural   VFeN2
_chemical_formula_sum   'V1 Fe1 N2'
_cell_volume   33.98709055
_cell_formula_units_Z   1
loop_
 _symmetry_equiv_pos_site_id
 _symmetry_equiv_pos_as_xyz
  1  'x, y, z'
loop_
 _atom_site_type_symbol
 _atom_site_label
 _atom_site_symmetry_multiplicity
 _atom_site_fract_x
 _atom_site_fract_y
 _atom_site_fract_z
 _atom_site_occupancy
  V  V0  1  0.00000000  0.99999990  0.49999998  1.0
  Fe  Fe1  1  0.00000000  0.00000007  0.99999998  1.0
  N  N2  1  0.33333333  0.66666667  0.24245463  1.0
  N  N3  1  0.66666667  0.33333333  0.75754541  1.0
