# generated using pymatgen
data_YBN2
_symmetry_space_group_name_H-M   'P 1'
_cell_length_a   3.14820766
_cell_length_b   5.06426076
_cell_length_c   6.32175098
_cell_angle_alpha   82.55833009
_cell_angle_beta   90.00030603
_cell_angle_gamma   89.99982611
_symmetry_Int_Tables_number   1
_chemical_formula_structural   YBN2
_chemical_formula_sum   'Y2 B2 N4'
_cell_volume   99.94092407
_cell_formula_units_Z   2
loop_
 _symmetry_equiv_pos_site_id
 _symmetry_equiv_pos_as_xyz
  1  'x, y, z'
loop_
 _atom_site_type_symbol
 _atom_site_label
 _atom_site_symmetry_multiplicity
 _atom_site_fract_x
 _atom_site_fract_y
 _atom_site_fract_z
 _atom_site_occupancy
  Y  Y0  1  0.00000011  0.99999998  0.00000003  1.0
  Y  Y1  1  0.49999958  0.00000008  0.50000005  1.0
  B  B2  1  0.49999510  0.61140289  0.85564693  1.0
  B  B3  1  0.50000655  0.38859704  0.14435305  1.0
  N  N4  1  0.99999552  0.24303443  0.28813268  1.0
  N  N5  1  0.49999981  0.31777532  0.90166117  1.0
  N  N6  1  0.50000049  0.68222469  0.09833877  1.0
  N  N7  1  0.00000285  0.75696558  0.71186732  1.0
