# generated using pymatgen
data_YRe2Sb3
_symmetry_space_group_name_H-M   'P 1'
_cell_length_a   8.69096013
_cell_length_b   8.69096013
_cell_length_c   8.69096013
_cell_angle_alpha   109.47122063
_cell_angle_beta   109.47122063
_cell_angle_gamma   109.47122063
_symmetry_Int_Tables_number   1
_chemical_formula_structural   YRe2Sb3
_chemical_formula_sum   'Y4 Re8 Sb12'
_cell_volume   505.33733082
_cell_formula_units_Z   4
loop_
 _symmetry_equiv_pos_site_id
 _symmetry_equiv_pos_as_xyz
  1  'x, y, z'
loop_
 _atom_site_type_symbol
 _atom_site_label
 _atom_site_symmetry_multiplicity
 _atom_site_fract_x
 _atom_site_fract_y
 _atom_site_fract_z
 _atom_site_occupancy
  Y  Y12  1  0.25000000  0.25000000  0.25000000  1.0
  Y  Y13  1  0.00000000  0.25000000  0.50000000  1.0
  Y  Y14  1  0.25000000  0.50000000  0.00000000  1.0
  Y  Y15  1  0.50000000  0.00000000  0.25000000  1.0
  Re  Re16  1  0.50000000  0.00000000  0.96483143  1.0
  Re  Re17  1  0.96483143  0.50000000  0.00000000  1.0
  Re  Re18  1  0.50000000  0.00000000  0.53516857  1.0
  Re  Re19  1  0.00000000  0.53516857  0.50000000  1.0
  Re  Re20  1  0.96483143  0.96483143  0.96483143  1.0
  Re  Re21  1  0.53516857  0.50000000  0.00000000  1.0
  Re  Re22  1  0.53516857  0.53516857  0.53516857  1.0
  Re  Re23  1  0.00000000  0.96483143  0.50000000  1.0
  Sb  Sb0  1  0.25000000  0.12904596  0.87904596  1.0
  Sb  Sb1  1  0.12904596  0.87904596  0.25000000  1.0
  Sb  Sb2  1  0.87904596  0.25000000  0.12904596  1.0
  Sb  Sb3  1  0.12904596  0.75000000  0.87904596  1.0
  Sb  Sb4  1  0.62095404  0.75000000  0.37095404  1.0
  Sb  Sb5  1  0.37095404  0.25000000  0.62095404  1.0
  Sb  Sb6  1  0.87904596  0.12904596  0.75000000  1.0
  Sb  Sb7  1  0.62095404  0.37095404  0.25000000  1.0
  Sb  Sb8  1  0.75000000  0.87904596  0.12904596  1.0
  Sb  Sb9  1  0.25000000  0.62095404  0.37095404  1.0
  Sb  Sb10  1  0.75000000  0.37095404  0.62095404  1.0
  Sb  Sb11  1  0.37095404  0.62095404  0.75000000  1.0
