# generated using pymatgen
data_ZnSb2Mo
_symmetry_space_group_name_H-M   'P 1'
_cell_length_a   3.58068100
_cell_length_b   3.58068100
_cell_length_c   5.23741400
_cell_angle_alpha   90.00000000
_cell_angle_beta   90.00000000
_cell_angle_gamma   120.00001852
_symmetry_Int_Tables_number   1
_chemical_formula_structural   ZnSb2Mo
_chemical_formula_sum   'Zn1 Sb2 Mo1'
_cell_volume   58.15388309
_cell_formula_units_Z   1
loop_
 _symmetry_equiv_pos_site_id
 _symmetry_equiv_pos_as_xyz
  1  'x, y, z'
loop_
 _atom_site_type_symbol
 _atom_site_label
 _atom_site_symmetry_multiplicity
 _atom_site_fract_x
 _atom_site_fract_y
 _atom_site_fract_z
 _atom_site_occupancy
  Zn  Zn1  1  0.00000000  0.00000000  0.50000000  1.0
  Sb  Sb2  1  0.33333333  0.66666667  0.24789900  1.0
  Sb  Sb3  1  0.66666667  0.33333333  0.75210100  1.0
  Mo  Mo0  1  0.00000000  0.00000000  0.00000000  1.0
